version 3
run SecurityTest-0-20250602-03:41:58-24180
attr configname SecurityTest
attr datetime 20250602-03:41:58
attr datetimef 20250602-034158
attr experiment SecurityTest
attr inifile omnetpp.ini
attr iterationvars ""
attr iterationvarsd ""
attr iterationvarsf ""
attr measurement ""
attr network cnetfinal.NUCESNetwork
attr processid 24180
attr repetition 0
attr replication #0
attr resultdir results
attr runnumber 0
attr seedset 0
config description "Test security features implementation"
config network cnetfinal.NUCESNetwork
config sim-time-limit 1h
config cpu-time-limit 300s
config total-stack 7MiB
config debug-on-errors true
config print-undisposed true
config **.scalar-recording true
config **.vector-recording true
config **.configurator.configFile "\"ipconfig.xml\""
config **.centralController.flowTableSize 10000
config **.centralController.processingDelay 0.5ms
config **.*.localController.flowTableSize 5000
config **.*.localController.processingDelay 1ms
config **.*.localController.updateInterval 5s
config **.*.**.OpenFlowSwitch.flowTableCapacity 100
config **.*.coreSwitch*.flowTableCapacity 1000
config **.islamabadCampus.numLabs 10
config **.islamabadCampus.systemsPerLab 40
config **.karachiCampus.numLabs 10
config **.karachiCampus.systemsPerLab 40
config **.lahoreCampus.numLabs 10
config **.lahoreCampus.systemsPerLab 40
config **.faisalabadCampus.numLabs 5
config **.faisalabadCampus.systemsPerLab 30
config **.peshawarCampus.numLabs 5
config **.peshawarCampus.systemsPerLab 30
config **.multanCampus.numLabs 5
config **.multanCampus.systemsPerLab 30

par NUCESNetwork.centralController.gate$o[0].channel typename "\"cnetfinal.Eth1G\""
par NUCESNetwork.centralController.gate$o[0].channel disabled false
attr mutable ""
par NUCESNetwork.centralController.gate$o[0].channel delay 1e-07s
attr mutable ""
attr unit s
par NUCESNetwork.centralController.gate$o[0].channel datarate 1e+09bps
attr mutable ""
attr unit bps
par NUCESNetwork.centralController.gate$o[0].channel ber 0
attr mutable ""
par NUCESNetwork.centralController.gate$o[0].channel per 0
attr mutable ""
par NUCESNetwork.headOffice.controllerLink$o.channel typename "\"cnetfinal.Eth1G\""
par NUCESNetwork.headOffice.controllerLink$o.channel disabled false
attr mutable ""
par NUCESNetwork.headOffice.controllerLink$o.channel delay 1e-07s
attr mutable ""
attr unit s
par NUCESNetwork.headOffice.controllerLink$o.channel datarate 1e+09bps
attr mutable ""
attr unit bps
par NUCESNetwork.headOffice.controllerLink$o.channel ber 0
attr mutable ""
par NUCESNetwork.headOffice.controllerLink$o.channel per 0
attr mutable ""
par NUCESNetwork.headOffice.backbone$o[0].channel typename "\"cnetfinal.Eth1G\""
par NUCESNetwork.headOffice.backbone$o[0].channel disabled false
attr mutable ""
par NUCESNetwork.headOffice.backbone$o[0].channel delay 1e-07s
attr mutable ""
attr unit s
par NUCESNetwork.headOffice.backbone$o[0].channel datarate 1e+09bps
attr mutable ""
attr unit bps
par NUCESNetwork.headOffice.backbone$o[0].channel ber 0
attr mutable ""
par NUCESNetwork.headOffice.backbone$o[0].channel per 0
attr mutable ""
par NUCESNetwork.islamabadCampus.backbone$o[0].channel typename "\"cnetfinal.Eth1G\""
par NUCESNetwork.islamabadCampus.backbone$o[0].channel disabled false
attr mutable ""
par NUCESNetwork.islamabadCampus.backbone$o[0].channel delay 1e-07s
attr mutable ""
attr unit s
par NUCESNetwork.islamabadCampus.backbone$o[0].channel datarate 1e+09bps
attr mutable ""
attr unit bps
par NUCESNetwork.islamabadCampus.backbone$o[0].channel ber 0
attr mutable ""
par NUCESNetwork.islamabadCampus.backbone$o[0].channel per 0
attr mutable ""
par NUCESNetwork.headOffice.backbone$o[1].channel typename "\"cnetfinal.Eth1G\""
par NUCESNetwork.headOffice.backbone$o[1].channel disabled false
attr mutable ""
par NUCESNetwork.headOffice.backbone$o[1].channel delay 1e-07s
attr mutable ""
attr unit s
par NUCESNetwork.headOffice.backbone$o[1].channel datarate 1e+09bps
attr mutable ""
attr unit bps
par NUCESNetwork.headOffice.backbone$o[1].channel ber 0
attr mutable ""
par NUCESNetwork.headOffice.backbone$o[1].channel per 0
attr mutable ""
par NUCESNetwork.islamabadCampus.backbone$o[1].channel typename "\"cnetfinal.Eth1G\""
par NUCESNetwork.islamabadCampus.backbone$o[1].channel disabled false
attr mutable ""
par NUCESNetwork.islamabadCampus.backbone$o[1].channel delay 1e-07s
attr mutable ""
attr unit s
par NUCESNetwork.islamabadCampus.backbone$o[1].channel datarate 1e+09bps
attr mutable ""
attr unit bps
par NUCESNetwork.islamabadCampus.backbone$o[1].channel ber 0
attr mutable ""
par NUCESNetwork.islamabadCampus.backbone$o[1].channel per 0
attr mutable ""
par NUCESNetwork.headOffice.backbone$o[2].channel typename "\"cnetfinal.Eth1G\""
par NUCESNetwork.headOffice.backbone$o[2].channel disabled false
attr mutable ""
par NUCESNetwork.headOffice.backbone$o[2].channel delay 1e-07s
attr mutable ""
attr unit s
par NUCESNetwork.headOffice.backbone$o[2].channel datarate 1e+09bps
attr mutable ""
attr unit bps
par NUCESNetwork.headOffice.backbone$o[2].channel ber 0
attr mutable ""
par NUCESNetwork.headOffice.backbone$o[2].channel per 0
attr mutable ""
par NUCESNetwork.karachiCampus.backbone$o[0].channel typename "\"cnetfinal.Eth1G\""
par NUCESNetwork.karachiCampus.backbone$o[0].channel disabled false
attr mutable ""
par NUCESNetwork.karachiCampus.backbone$o[0].channel delay 1e-07s
attr mutable ""
attr unit s
par NUCESNetwork.karachiCampus.backbone$o[0].channel datarate 1e+09bps
attr mutable ""
attr unit bps
par NUCESNetwork.karachiCampus.backbone$o[0].channel ber 0
attr mutable ""
par NUCESNetwork.karachiCampus.backbone$o[0].channel per 0
attr mutable ""
par NUCESNetwork.headOffice.backbone$o[3].channel typename "\"cnetfinal.Eth1G\""
par NUCESNetwork.headOffice.backbone$o[3].channel disabled false
attr mutable ""
par NUCESNetwork.headOffice.backbone$o[3].channel delay 1e-07s
attr mutable ""
attr unit s
par NUCESNetwork.headOffice.backbone$o[3].channel datarate 1e+09bps
attr mutable ""
attr unit bps
par NUCESNetwork.headOffice.backbone$o[3].channel ber 0
attr mutable ""
par NUCESNetwork.headOffice.backbone$o[3].channel per 0
attr mutable ""
par NUCESNetwork.karachiCampus.backbone$o[1].channel typename "\"cnetfinal.Eth1G\""
par NUCESNetwork.karachiCampus.backbone$o[1].channel disabled false
attr mutable ""
par NUCESNetwork.karachiCampus.backbone$o[1].channel delay 1e-07s
attr mutable ""
attr unit s
par NUCESNetwork.karachiCampus.backbone$o[1].channel datarate 1e+09bps
attr mutable ""
attr unit bps
par NUCESNetwork.karachiCampus.backbone$o[1].channel ber 0
attr mutable ""
par NUCESNetwork.karachiCampus.backbone$o[1].channel per 0
attr mutable ""
par NUCESNetwork.headOffice.backbone$o[4].channel typename "\"cnetfinal.Eth1G\""
par NUCESNetwork.headOffice.backbone$o[4].channel disabled false
attr mutable ""
par NUCESNetwork.headOffice.backbone$o[4].channel delay 1e-07s
attr mutable ""
attr unit s
par NUCESNetwork.headOffice.backbone$o[4].channel datarate 1e+09bps
attr mutable ""
attr unit bps
par NUCESNetwork.headOffice.backbone$o[4].channel ber 0
attr mutable ""
par NUCESNetwork.headOffice.backbone$o[4].channel per 0
attr mutable ""
par NUCESNetwork.lahoreCampus.backbone$o[0].channel typename "\"cnetfinal.Eth1G\""
par NUCESNetwork.lahoreCampus.backbone$o[0].channel disabled false
attr mutable ""
par NUCESNetwork.lahoreCampus.backbone$o[0].channel delay 1e-07s
attr mutable ""
attr unit s
par NUCESNetwork.lahoreCampus.backbone$o[0].channel datarate 1e+09bps
attr mutable ""
attr unit bps
par NUCESNetwork.lahoreCampus.backbone$o[0].channel ber 0
attr mutable ""
par NUCESNetwork.lahoreCampus.backbone$o[0].channel per 0
attr mutable ""
par NUCESNetwork.headOffice.backbone$o[5].channel typename "\"cnetfinal.Eth1G\""
par NUCESNetwork.headOffice.backbone$o[5].channel disabled false
attr mutable ""
par NUCESNetwork.headOffice.backbone$o[5].channel delay 1e-07s
attr mutable ""
attr unit s
par NUCESNetwork.headOffice.backbone$o[5].channel datarate 1e+09bps
attr mutable ""
attr unit bps
par NUCESNetwork.headOffice.backbone$o[5].channel ber 0
attr mutable ""
par NUCESNetwork.headOffice.backbone$o[5].channel per 0
attr mutable ""
par NUCESNetwork.lahoreCampus.backbone$o[1].channel typename "\"cnetfinal.Eth1G\""
par NUCESNetwork.lahoreCampus.backbone$o[1].channel disabled false
attr mutable ""
par NUCESNetwork.lahoreCampus.backbone$o[1].channel delay 1e-07s
attr mutable ""
attr unit s
par NUCESNetwork.lahoreCampus.backbone$o[1].channel datarate 1e+09bps
attr mutable ""
attr unit bps
par NUCESNetwork.lahoreCampus.backbone$o[1].channel ber 0
attr mutable ""
par NUCESNetwork.lahoreCampus.backbone$o[1].channel per 0
attr mutable ""
par NUCESNetwork.headOffice.backbone$o[6].channel typename "\"cnetfinal.Eth1G\""
par NUCESNetwork.headOffice.backbone$o[6].channel disabled false
attr mutable ""
par NUCESNetwork.headOffice.backbone$o[6].channel delay 1e-07s
attr mutable ""
attr unit s
par NUCESNetwork.headOffice.backbone$o[6].channel datarate 1e+09bps
attr mutable ""
attr unit bps
par NUCESNetwork.headOffice.backbone$o[6].channel ber 0
attr mutable ""
par NUCESNetwork.headOffice.backbone$o[6].channel per 0
attr mutable ""
par NUCESNetwork.faisalabadCampus.backbone$o[0].channel typename "\"cnetfinal.Eth1G\""
par NUCESNetwork.faisalabadCampus.backbone$o[0].channel disabled false
attr mutable ""
par NUCESNetwork.faisalabadCampus.backbone$o[0].channel delay 1e-07s
attr mutable ""
attr unit s
par NUCESNetwork.faisalabadCampus.backbone$o[0].channel datarate 1e+09bps
attr mutable ""
attr unit bps
par NUCESNetwork.faisalabadCampus.backbone$o[0].channel ber 0
attr mutable ""
par NUCESNetwork.faisalabadCampus.backbone$o[0].channel per 0
attr mutable ""
par NUCESNetwork.headOffice.backbone$o[7].channel typename "\"cnetfinal.Eth1G\""
par NUCESNetwork.headOffice.backbone$o[7].channel disabled false
attr mutable ""
par NUCESNetwork.headOffice.backbone$o[7].channel delay 1e-07s
attr mutable ""
attr unit s
par NUCESNetwork.headOffice.backbone$o[7].channel datarate 1e+09bps
attr mutable ""
attr unit bps
par NUCESNetwork.headOffice.backbone$o[7].channel ber 0
attr mutable ""
par NUCESNetwork.headOffice.backbone$o[7].channel per 0
attr mutable ""
par NUCESNetwork.faisalabadCampus.backbone$o[1].channel typename "\"cnetfinal.Eth1G\""
par NUCESNetwork.faisalabadCampus.backbone$o[1].channel disabled false
attr mutable ""
par NUCESNetwork.faisalabadCampus.backbone$o[1].channel delay 1e-07s
attr mutable ""
attr unit s
par NUCESNetwork.faisalabadCampus.backbone$o[1].channel datarate 1e+09bps
attr mutable ""
attr unit bps
par NUCESNetwork.faisalabadCampus.backbone$o[1].channel ber 0
attr mutable ""
par NUCESNetwork.faisalabadCampus.backbone$o[1].channel per 0
attr mutable ""
par NUCESNetwork.headOffice.backbone$o[8].channel typename "\"cnetfinal.Eth1G\""
par NUCESNetwork.headOffice.backbone$o[8].channel disabled false
attr mutable ""
par NUCESNetwork.headOffice.backbone$o[8].channel delay 1e-07s
attr mutable ""
attr unit s
par NUCESNetwork.headOffice.backbone$o[8].channel datarate 1e+09bps
attr mutable ""
attr unit bps
par NUCESNetwork.headOffice.backbone$o[8].channel ber 0
attr mutable ""
par NUCESNetwork.headOffice.backbone$o[8].channel per 0
attr mutable ""
par NUCESNetwork.peshawarCampus.backbone$o[0].channel typename "\"cnetfinal.Eth1G\""
par NUCESNetwork.peshawarCampus.backbone$o[0].channel disabled false
attr mutable ""
par NUCESNetwork.peshawarCampus.backbone$o[0].channel delay 1e-07s
attr mutable ""
attr unit s
par NUCESNetwork.peshawarCampus.backbone$o[0].channel datarate 1e+09bps
attr mutable ""
attr unit bps
par NUCESNetwork.peshawarCampus.backbone$o[0].channel ber 0
attr mutable ""
par NUCESNetwork.peshawarCampus.backbone$o[0].channel per 0
attr mutable ""
par NUCESNetwork.headOffice.backbone$o[9].channel typename "\"cnetfinal.Eth1G\""
par NUCESNetwork.headOffice.backbone$o[9].channel disabled false
attr mutable ""
par NUCESNetwork.headOffice.backbone$o[9].channel delay 1e-07s
attr mutable ""
attr unit s
par NUCESNetwork.headOffice.backbone$o[9].channel datarate 1e+09bps
attr mutable ""
attr unit bps
par NUCESNetwork.headOffice.backbone$o[9].channel ber 0
attr mutable ""
par NUCESNetwork.headOffice.backbone$o[9].channel per 0
attr mutable ""
par NUCESNetwork.peshawarCampus.backbone$o[1].channel typename "\"cnetfinal.Eth1G\""
par NUCESNetwork.peshawarCampus.backbone$o[1].channel disabled false
attr mutable ""
par NUCESNetwork.peshawarCampus.backbone$o[1].channel delay 1e-07s
attr mutable ""
attr unit s
par NUCESNetwork.peshawarCampus.backbone$o[1].channel datarate 1e+09bps
attr mutable ""
attr unit bps
par NUCESNetwork.peshawarCampus.backbone$o[1].channel ber 0
attr mutable ""
par NUCESNetwork.peshawarCampus.backbone$o[1].channel per 0
attr mutable ""
par NUCESNetwork.headOffice.backbone$o[10].channel typename "\"cnetfinal.Eth1G\""
par NUCESNetwork.headOffice.backbone$o[10].channel disabled false
attr mutable ""
par NUCESNetwork.headOffice.backbone$o[10].channel delay 1e-07s
attr mutable ""
attr unit s
par NUCESNetwork.headOffice.backbone$o[10].channel datarate 1e+09bps
attr mutable ""
attr unit bps
par NUCESNetwork.headOffice.backbone$o[10].channel ber 0
attr mutable ""
par NUCESNetwork.headOffice.backbone$o[10].channel per 0
attr mutable ""
par NUCESNetwork.multanCampus.backbone$o[0].channel typename "\"cnetfinal.Eth1G\""
par NUCESNetwork.multanCampus.backbone$o[0].channel disabled false
attr mutable ""
par NUCESNetwork.multanCampus.backbone$o[0].channel delay 1e-07s
attr mutable ""
attr unit s
par NUCESNetwork.multanCampus.backbone$o[0].channel datarate 1e+09bps
attr mutable ""
attr unit bps
par NUCESNetwork.multanCampus.backbone$o[0].channel ber 0
attr mutable ""
par NUCESNetwork.multanCampus.backbone$o[0].channel per 0
attr mutable ""
par NUCESNetwork.headOffice.backbone$o[11].channel typename "\"cnetfinal.Eth1G\""
par NUCESNetwork.headOffice.backbone$o[11].channel disabled false
attr mutable ""
par NUCESNetwork.headOffice.backbone$o[11].channel delay 1e-07s
attr mutable ""
attr unit s
par NUCESNetwork.headOffice.backbone$o[11].channel datarate 1e+09bps
attr mutable ""
attr unit bps
par NUCESNetwork.headOffice.backbone$o[11].channel ber 0
attr mutable ""
par NUCESNetwork.headOffice.backbone$o[11].channel per 0
attr mutable ""
par NUCESNetwork.multanCampus.backbone$o[1].channel typename "\"cnetfinal.Eth1G\""
par NUCESNetwork.multanCampus.backbone$o[1].channel disabled false
attr mutable ""
par NUCESNetwork.multanCampus.backbone$o[1].channel delay 1e-07s
attr mutable ""
attr unit s
par NUCESNetwork.multanCampus.backbone$o[1].channel datarate 1e+09bps
attr mutable ""
attr unit bps
par NUCESNetwork.multanCampus.backbone$o[1].channel ber 0
attr mutable ""
par NUCESNetwork.multanCampus.backbone$o[1].channel per 0
attr mutable ""
par NUCESNetwork.centralController.gate$o[1].channel typename "\"cnetfinal.Eth1G\""
par NUCESNetwork.centralController.gate$o[1].channel disabled false
attr mutable ""
par NUCESNetwork.centralController.gate$o[1].channel delay 1e-07s
attr mutable ""
attr unit s
par NUCESNetwork.centralController.gate$o[1].channel datarate 1e+09bps
attr mutable ""
attr unit bps
par NUCESNetwork.centralController.gate$o[1].channel ber 0
attr mutable ""
par NUCESNetwork.centralController.gate$o[1].channel per 0
attr mutable ""
par NUCESNetwork.islamabadCampus.controllerGate$o.channel typename "\"cnetfinal.Eth1G\""
par NUCESNetwork.islamabadCampus.controllerGate$o.channel disabled false
attr mutable ""
par NUCESNetwork.islamabadCampus.controllerGate$o.channel delay 1e-07s
attr mutable ""
attr unit s
par NUCESNetwork.islamabadCampus.controllerGate$o.channel datarate 1e+09bps
attr mutable ""
attr unit bps
par NUCESNetwork.islamabadCampus.controllerGate$o.channel ber 0
attr mutable ""
par NUCESNetwork.islamabadCampus.controllerGate$o.channel per 0
attr mutable ""
par NUCESNetwork.centralController.gate$o[2].channel typename "\"cnetfinal.Eth1G\""
par NUCESNetwork.centralController.gate$o[2].channel disabled false
attr mutable ""
par NUCESNetwork.centralController.gate$o[2].channel delay 1e-07s
attr mutable ""
attr unit s
par NUCESNetwork.centralController.gate$o[2].channel datarate 1e+09bps
attr mutable ""
attr unit bps
par NUCESNetwork.centralController.gate$o[2].channel ber 0
attr mutable ""
par NUCESNetwork.centralController.gate$o[2].channel per 0
attr mutable ""
par NUCESNetwork.karachiCampus.controllerGate$o.channel typename "\"cnetfinal.Eth1G\""
par NUCESNetwork.karachiCampus.controllerGate$o.channel disabled false
attr mutable ""
par NUCESNetwork.karachiCampus.controllerGate$o.channel delay 1e-07s
attr mutable ""
attr unit s
par NUCESNetwork.karachiCampus.controllerGate$o.channel datarate 1e+09bps
attr mutable ""
attr unit bps
par NUCESNetwork.karachiCampus.controllerGate$o.channel ber 0
attr mutable ""
par NUCESNetwork.karachiCampus.controllerGate$o.channel per 0
attr mutable ""
par NUCESNetwork.centralController.gate$o[3].channel typename "\"cnetfinal.Eth1G\""
par NUCESNetwork.centralController.gate$o[3].channel disabled false
attr mutable ""
par NUCESNetwork.centralController.gate$o[3].channel delay 1e-07s
attr mutable ""
attr unit s
par NUCESNetwork.centralController.gate$o[3].channel datarate 1e+09bps
attr mutable ""
attr unit bps
par NUCESNetwork.centralController.gate$o[3].channel ber 0
attr mutable ""
par NUCESNetwork.centralController.gate$o[3].channel per 0
attr mutable ""
par NUCESNetwork.lahoreCampus.controllerGate$o.channel typename "\"cnetfinal.Eth1G\""
par NUCESNetwork.lahoreCampus.controllerGate$o.channel disabled false
attr mutable ""
par NUCESNetwork.lahoreCampus.controllerGate$o.channel delay 1e-07s
attr mutable ""
attr unit s
par NUCESNetwork.lahoreCampus.controllerGate$o.channel datarate 1e+09bps
attr mutable ""
attr unit bps
par NUCESNetwork.lahoreCampus.controllerGate$o.channel ber 0
attr mutable ""
par NUCESNetwork.lahoreCampus.controllerGate$o.channel per 0
attr mutable ""
par NUCESNetwork.centralController.gate$o[4].channel typename "\"cnetfinal.Eth1G\""
par NUCESNetwork.centralController.gate$o[4].channel disabled false
attr mutable ""
par NUCESNetwork.centralController.gate$o[4].channel delay 1e-07s
attr mutable ""
attr unit s
par NUCESNetwork.centralController.gate$o[4].channel datarate 1e+09bps
attr mutable ""
attr unit bps
par NUCESNetwork.centralController.gate$o[4].channel ber 0
attr mutable ""
par NUCESNetwork.centralController.gate$o[4].channel per 0
attr mutable ""
par NUCESNetwork.faisalabadCampus.controllerGate$o.channel typename "\"cnetfinal.Eth1G\""
par NUCESNetwork.faisalabadCampus.controllerGate$o.channel disabled false
attr mutable ""
par NUCESNetwork.faisalabadCampus.controllerGate$o.channel delay 1e-07s
attr mutable ""
attr unit s
par NUCESNetwork.faisalabadCampus.controllerGate$o.channel datarate 1e+09bps
attr mutable ""
attr unit bps
par NUCESNetwork.faisalabadCampus.controllerGate$o.channel ber 0
attr mutable ""
par NUCESNetwork.faisalabadCampus.controllerGate$o.channel per 0
attr mutable ""
par NUCESNetwork.centralController.gate$o[5].channel typename "\"cnetfinal.Eth1G\""
par NUCESNetwork.centralController.gate$o[5].channel disabled false
attr mutable ""
par NUCESNetwork.centralController.gate$o[5].channel delay 1e-07s
attr mutable ""
attr unit s
par NUCESNetwork.centralController.gate$o[5].channel datarate 1e+09bps
attr mutable ""
attr unit bps
par NUCESNetwork.centralController.gate$o[5].channel ber 0
attr mutable ""
par NUCESNetwork.centralController.gate$o[5].channel per 0
attr mutable ""
par NUCESNetwork.peshawarCampus.controllerGate$o.channel typename "\"cnetfinal.Eth1G\""
par NUCESNetwork.peshawarCampus.controllerGate$o.channel disabled false
attr mutable ""
par NUCESNetwork.peshawarCampus.controllerGate$o.channel delay 1e-07s
attr mutable ""
attr unit s
par NUCESNetwork.peshawarCampus.controllerGate$o.channel datarate 1e+09bps
attr mutable ""
attr unit bps
par NUCESNetwork.peshawarCampus.controllerGate$o.channel ber 0
attr mutable ""
par NUCESNetwork.peshawarCampus.controllerGate$o.channel per 0
attr mutable ""
par NUCESNetwork.centralController.gate$o[6].channel typename "\"cnetfinal.Eth1G\""
par NUCESNetwork.centralController.gate$o[6].channel disabled false
attr mutable ""
par NUCESNetwork.centralController.gate$o[6].channel delay 1e-07s
attr mutable ""
attr unit s
par NUCESNetwork.centralController.gate$o[6].channel datarate 1e+09bps
attr mutable ""
attr unit bps
par NUCESNetwork.centralController.gate$o[6].channel ber 0
attr mutable ""
par NUCESNetwork.centralController.gate$o[6].channel per 0
attr mutable ""
par NUCESNetwork.multanCampus.controllerGate$o.channel typename "\"cnetfinal.Eth1G\""
par NUCESNetwork.multanCampus.controllerGate$o.channel disabled false
attr mutable ""
par NUCESNetwork.multanCampus.controllerGate$o.channel delay 1e-07s
attr mutable ""
attr unit s
par NUCESNetwork.multanCampus.controllerGate$o.channel datarate 1e+09bps
attr mutable ""
attr unit bps
par NUCESNetwork.multanCampus.controllerGate$o.channel ber 0
attr mutable ""
par NUCESNetwork.multanCampus.controllerGate$o.channel per 0
attr mutable ""
par NUCESNetwork.configurator typename "\"cnetfinal.NetworkConfigurator\""
par NUCESNetwork.configurator configFile "\"ipconfig.xml\""
par NUCESNetwork.centralController typename "\"cnetfinal.CentralizedController\""
par NUCESNetwork.centralController controllerType "\"centralized\""
par NUCESNetwork.centralController flowTableSize 10000
par NUCESNetwork.centralController processingDelay 0.0005s
attr unit s
scalar NUCESNetwork.centralController avgFlowSetupTime nan
scalar NUCESNetwork.centralController maxFlowSetupTime nan
scalar NUCESNetwork.centralController totalFlowRequests 0
statistic NUCESNetwork.centralController flowSetupTime:stats
field count 0
field mean nan
field stddev nan
field min nan
field max nan
field sum 0
field sqrsum 0
attr recordingmode stats
attr title "Flow setup time"
attr unit s
par NUCESNetwork.headOffice.coreSwitch1.controllerOut.channel typename "\"cnetfinal.Eth1G\""
par NUCESNetwork.headOffice.coreSwitch1.controllerOut.channel disabled false
attr mutable ""
par NUCESNetwork.headOffice.coreSwitch1.controllerOut.channel delay 1e-07s
attr mutable ""
attr unit s
par NUCESNetwork.headOffice.coreSwitch1.controllerOut.channel datarate 1e+09bps
attr mutable ""
attr unit bps
par NUCESNetwork.headOffice.coreSwitch1.controllerOut.channel ber 0
attr mutable ""
par NUCESNetwork.headOffice.coreSwitch1.controllerOut.channel per 0
attr mutable ""
par NUCESNetwork.headOffice.controllerSwitch.dataPort$o[0].channel typename "\"cnetfinal.Eth1G\""
par NUCESNetwork.headOffice.controllerSwitch.dataPort$o[0].channel disabled false
attr mutable ""
par NUCESNetwork.headOffice.controllerSwitch.dataPort$o[0].channel delay 1e-07s
attr mutable ""
attr unit s
par NUCESNetwork.headOffice.controllerSwitch.dataPort$o[0].channel datarate 1e+09bps
attr mutable ""
attr unit bps
par NUCESNetwork.headOffice.controllerSwitch.dataPort$o[0].channel ber 0
attr mutable ""
par NUCESNetwork.headOffice.controllerSwitch.dataPort$o[0].channel per 0
attr mutable ""
par NUCESNetwork.headOffice.coreSwitch2.controllerOut.channel typename "\"cnetfinal.Eth1G\""
par NUCESNetwork.headOffice.coreSwitch2.controllerOut.channel disabled false
attr mutable ""
par NUCESNetwork.headOffice.coreSwitch2.controllerOut.channel delay 1e-07s
attr mutable ""
attr unit s
par NUCESNetwork.headOffice.coreSwitch2.controllerOut.channel datarate 1e+09bps
attr mutable ""
attr unit bps
par NUCESNetwork.headOffice.coreSwitch2.controllerOut.channel ber 0
attr mutable ""
par NUCESNetwork.headOffice.coreSwitch2.controllerOut.channel per 0
attr mutable ""
par NUCESNetwork.headOffice.controllerSwitch.dataPort$o[1].channel typename "\"cnetfinal.Eth1G\""
par NUCESNetwork.headOffice.controllerSwitch.dataPort$o[1].channel disabled false
attr mutable ""
par NUCESNetwork.headOffice.controllerSwitch.dataPort$o[1].channel delay 1e-07s
attr mutable ""
attr unit s
par NUCESNetwork.headOffice.controllerSwitch.dataPort$o[1].channel datarate 1e+09bps
attr mutable ""
attr unit bps
par NUCESNetwork.headOffice.controllerSwitch.dataPort$o[1].channel ber 0
attr mutable ""
par NUCESNetwork.headOffice.controllerSwitch.dataPort$o[1].channel per 0
attr mutable ""
par NUCESNetwork.headOffice.coreSwitch3.controllerOut.channel typename "\"cnetfinal.Eth1G\""
par NUCESNetwork.headOffice.coreSwitch3.controllerOut.channel disabled false
attr mutable ""
par NUCESNetwork.headOffice.coreSwitch3.controllerOut.channel delay 1e-07s
attr mutable ""
attr unit s
par NUCESNetwork.headOffice.coreSwitch3.controllerOut.channel datarate 1e+09bps
attr mutable ""
attr unit bps
par NUCESNetwork.headOffice.coreSwitch3.controllerOut.channel ber 0
attr mutable ""
par NUCESNetwork.headOffice.coreSwitch3.controllerOut.channel per 0
attr mutable ""
par NUCESNetwork.headOffice.controllerSwitch.dataPort$o[2].channel typename "\"cnetfinal.Eth1G\""
par NUCESNetwork.headOffice.controllerSwitch.dataPort$o[2].channel disabled false
attr mutable ""
par NUCESNetwork.headOffice.controllerSwitch.dataPort$o[2].channel delay 1e-07s
attr mutable ""
attr unit s
par NUCESNetwork.headOffice.controllerSwitch.dataPort$o[2].channel datarate 1e+09bps
attr mutable ""
attr unit bps
par NUCESNetwork.headOffice.controllerSwitch.dataPort$o[2].channel ber 0
attr mutable ""
par NUCESNetwork.headOffice.controllerSwitch.dataPort$o[2].channel per 0
attr mutable ""
par NUCESNetwork.headOffice.coreSwitch1.dataPort$o[0].channel typename "\"cnetfinal.Eth1G\""
par NUCESNetwork.headOffice.coreSwitch1.dataPort$o[0].channel disabled false
attr mutable ""
par NUCESNetwork.headOffice.coreSwitch1.dataPort$o[0].channel delay 1e-07s
attr mutable ""
attr unit s
par NUCESNetwork.headOffice.coreSwitch1.dataPort$o[0].channel datarate 1e+09bps
attr mutable ""
attr unit bps
par NUCESNetwork.headOffice.coreSwitch1.dataPort$o[0].channel ber 0
attr mutable ""
par NUCESNetwork.headOffice.coreSwitch1.dataPort$o[0].channel per 0
attr mutable ""
par NUCESNetwork.headOffice.coreSwitch2.dataPort$o[0].channel typename "\"cnetfinal.Eth1G\""
par NUCESNetwork.headOffice.coreSwitch2.dataPort$o[0].channel disabled false
attr mutable ""
par NUCESNetwork.headOffice.coreSwitch2.dataPort$o[0].channel delay 1e-07s
attr mutable ""
attr unit s
par NUCESNetwork.headOffice.coreSwitch2.dataPort$o[0].channel datarate 1e+09bps
attr mutable ""
attr unit bps
par NUCESNetwork.headOffice.coreSwitch2.dataPort$o[0].channel ber 0
attr mutable ""
par NUCESNetwork.headOffice.coreSwitch2.dataPort$o[0].channel per 0
attr mutable ""
par NUCESNetwork.headOffice.coreSwitch2.dataPort$o[1].channel typename "\"cnetfinal.Eth1G\""
par NUCESNetwork.headOffice.coreSwitch2.dataPort$o[1].channel disabled false
attr mutable ""
par NUCESNetwork.headOffice.coreSwitch2.dataPort$o[1].channel delay 1e-07s
attr mutable ""
attr unit s
par NUCESNetwork.headOffice.coreSwitch2.dataPort$o[1].channel datarate 1e+09bps
attr mutable ""
attr unit bps
par NUCESNetwork.headOffice.coreSwitch2.dataPort$o[1].channel ber 0
attr mutable ""
par NUCESNetwork.headOffice.coreSwitch2.dataPort$o[1].channel per 0
attr mutable ""
par NUCESNetwork.headOffice.coreSwitch3.dataPort$o[0].channel typename "\"cnetfinal.Eth1G\""
par NUCESNetwork.headOffice.coreSwitch3.dataPort$o[0].channel disabled false
attr mutable ""
par NUCESNetwork.headOffice.coreSwitch3.dataPort$o[0].channel delay 1e-07s
attr mutable ""
attr unit s
par NUCESNetwork.headOffice.coreSwitch3.dataPort$o[0].channel datarate 1e+09bps
attr mutable ""
attr unit bps
par NUCESNetwork.headOffice.coreSwitch3.dataPort$o[0].channel ber 0
attr mutable ""
par NUCESNetwork.headOffice.coreSwitch3.dataPort$o[0].channel per 0
attr mutable ""
par NUCESNetwork.headOffice.coreSwitch3.dataPort$o[1].channel typename "\"cnetfinal.Eth1G\""
par NUCESNetwork.headOffice.coreSwitch3.dataPort$o[1].channel disabled false
attr mutable ""
par NUCESNetwork.headOffice.coreSwitch3.dataPort$o[1].channel delay 1e-07s
attr mutable ""
attr unit s
par NUCESNetwork.headOffice.coreSwitch3.dataPort$o[1].channel datarate 1e+09bps
attr mutable ""
attr unit bps
par NUCESNetwork.headOffice.coreSwitch3.dataPort$o[1].channel ber 0
attr mutable ""
par NUCESNetwork.headOffice.coreSwitch3.dataPort$o[1].channel per 0
attr mutable ""
par NUCESNetwork.headOffice.coreSwitch1.dataPort$o[1].channel typename "\"cnetfinal.Eth1G\""
par NUCESNetwork.headOffice.coreSwitch1.dataPort$o[1].channel disabled false
attr mutable ""
par NUCESNetwork.headOffice.coreSwitch1.dataPort$o[1].channel delay 1e-07s
attr mutable ""
attr unit s
par NUCESNetwork.headOffice.coreSwitch1.dataPort$o[1].channel datarate 1e+09bps
attr mutable ""
attr unit bps
par NUCESNetwork.headOffice.coreSwitch1.dataPort$o[1].channel ber 0
attr mutable ""
par NUCESNetwork.headOffice.coreSwitch1.dataPort$o[1].channel per 0
attr mutable ""
par NUCESNetwork.headOffice.coreSwitch1.dataPort$o[2].channel typename "\"cnetfinal.Eth1G\""
par NUCESNetwork.headOffice.coreSwitch1.dataPort$o[2].channel disabled false
attr mutable ""
par NUCESNetwork.headOffice.coreSwitch1.dataPort$o[2].channel delay 1e-07s
attr mutable ""
attr unit s
par NUCESNetwork.headOffice.coreSwitch1.dataPort$o[2].channel datarate 1e+09bps
attr mutable ""
attr unit bps
par NUCESNetwork.headOffice.coreSwitch1.dataPort$o[2].channel ber 0
attr mutable ""
par NUCESNetwork.headOffice.coreSwitch1.dataPort$o[2].channel per 0
attr mutable ""
par NUCESNetwork.headOffice.dnsServer.gate$o.channel typename "\"cnetfinal.Eth1G\""
par NUCESNetwork.headOffice.dnsServer.gate$o.channel disabled false
attr mutable ""
par NUCESNetwork.headOffice.dnsServer.gate$o.channel delay 1e-07s
attr mutable ""
attr unit s
par NUCESNetwork.headOffice.dnsServer.gate$o.channel datarate 1e+09bps
attr mutable ""
attr unit bps
par NUCESNetwork.headOffice.dnsServer.gate$o.channel ber 0
attr mutable ""
par NUCESNetwork.headOffice.dnsServer.gate$o.channel per 0
attr mutable ""
par NUCESNetwork.headOffice.coreSwitch2.dataPort$o[2].channel typename "\"cnetfinal.Eth1G\""
par NUCESNetwork.headOffice.coreSwitch2.dataPort$o[2].channel disabled false
attr mutable ""
par NUCESNetwork.headOffice.coreSwitch2.dataPort$o[2].channel delay 1e-07s
attr mutable ""
attr unit s
par NUCESNetwork.headOffice.coreSwitch2.dataPort$o[2].channel datarate 1e+09bps
attr mutable ""
attr unit bps
par NUCESNetwork.headOffice.coreSwitch2.dataPort$o[2].channel ber 0
attr mutable ""
par NUCESNetwork.headOffice.coreSwitch2.dataPort$o[2].channel per 0
attr mutable ""
par NUCESNetwork.headOffice.dhcpServer.gate$o.channel typename "\"cnetfinal.Eth1G\""
par NUCESNetwork.headOffice.dhcpServer.gate$o.channel disabled false
attr mutable ""
par NUCESNetwork.headOffice.dhcpServer.gate$o.channel delay 1e-07s
attr mutable ""
attr unit s
par NUCESNetwork.headOffice.dhcpServer.gate$o.channel datarate 1e+09bps
attr mutable ""
attr unit bps
par NUCESNetwork.headOffice.dhcpServer.gate$o.channel ber 0
attr mutable ""
par NUCESNetwork.headOffice.dhcpServer.gate$o.channel per 0
attr mutable ""
par NUCESNetwork.headOffice.coreSwitch3.dataPort$o[2].channel typename "\"cnetfinal.Eth1G\""
par NUCESNetwork.headOffice.coreSwitch3.dataPort$o[2].channel disabled false
attr mutable ""
par NUCESNetwork.headOffice.coreSwitch3.dataPort$o[2].channel delay 1e-07s
attr mutable ""
attr unit s
par NUCESNetwork.headOffice.coreSwitch3.dataPort$o[2].channel datarate 1e+09bps
attr mutable ""
attr unit bps
par NUCESNetwork.headOffice.coreSwitch3.dataPort$o[2].channel ber 0
attr mutable ""
par NUCESNetwork.headOffice.coreSwitch3.dataPort$o[2].channel per 0
attr mutable ""
par NUCESNetwork.headOffice.firewallServer.gate$o.channel typename "\"cnetfinal.Eth1G\""
par NUCESNetwork.headOffice.firewallServer.gate$o.channel disabled false
attr mutable ""
par NUCESNetwork.headOffice.firewallServer.gate$o.channel delay 1e-07s
attr mutable ""
attr unit s
par NUCESNetwork.headOffice.firewallServer.gate$o.channel datarate 1e+09bps
attr mutable ""
attr unit bps
par NUCESNetwork.headOffice.firewallServer.gate$o.channel ber 0
attr mutable ""
par NUCESNetwork.headOffice.firewallServer.gate$o.channel per 0
attr mutable ""
par NUCESNetwork.headOffice.coreSwitch1.dataPort$o[3].channel typename "\"cnetfinal.Eth1G\""
par NUCESNetwork.headOffice.coreSwitch1.dataPort$o[3].channel disabled false
attr mutable ""
par NUCESNetwork.headOffice.coreSwitch1.dataPort$o[3].channel delay 1e-07s
attr mutable ""
attr unit s
par NUCESNetwork.headOffice.coreSwitch1.dataPort$o[3].channel datarate 1e+09bps
attr mutable ""
attr unit bps
par NUCESNetwork.headOffice.coreSwitch1.dataPort$o[3].channel ber 0
attr mutable ""
par NUCESNetwork.headOffice.coreSwitch1.dataPort$o[3].channel per 0
attr mutable ""
par NUCESNetwork.headOffice.edgeServer1.gate$o.channel typename "\"cnetfinal.Eth1G\""
par NUCESNetwork.headOffice.edgeServer1.gate$o.channel disabled false
attr mutable ""
par NUCESNetwork.headOffice.edgeServer1.gate$o.channel delay 1e-07s
attr mutable ""
attr unit s
par NUCESNetwork.headOffice.edgeServer1.gate$o.channel datarate 1e+09bps
attr mutable ""
attr unit bps
par NUCESNetwork.headOffice.edgeServer1.gate$o.channel ber 0
attr mutable ""
par NUCESNetwork.headOffice.edgeServer1.gate$o.channel per 0
attr mutable ""
par NUCESNetwork.headOffice.coreSwitch2.dataPort$o[3].channel typename "\"cnetfinal.Eth1G\""
par NUCESNetwork.headOffice.coreSwitch2.dataPort$o[3].channel disabled false
attr mutable ""
par NUCESNetwork.headOffice.coreSwitch2.dataPort$o[3].channel delay 1e-07s
attr mutable ""
attr unit s
par NUCESNetwork.headOffice.coreSwitch2.dataPort$o[3].channel datarate 1e+09bps
attr mutable ""
attr unit bps
par NUCESNetwork.headOffice.coreSwitch2.dataPort$o[3].channel ber 0
attr mutable ""
par NUCESNetwork.headOffice.coreSwitch2.dataPort$o[3].channel per 0
attr mutable ""
par NUCESNetwork.headOffice.edgeServer2.gate$o.channel typename "\"cnetfinal.Eth1G\""
par NUCESNetwork.headOffice.edgeServer2.gate$o.channel disabled false
attr mutable ""
par NUCESNetwork.headOffice.edgeServer2.gate$o.channel delay 1e-07s
attr mutable ""
attr unit s
par NUCESNetwork.headOffice.edgeServer2.gate$o.channel datarate 1e+09bps
attr mutable ""
attr unit bps
par NUCESNetwork.headOffice.edgeServer2.gate$o.channel ber 0
attr mutable ""
par NUCESNetwork.headOffice.edgeServer2.gate$o.channel per 0
attr mutable ""
par NUCESNetwork.headOffice.coreSwitch1.dataPort$o[4].channel typename "\"cnetfinal.Eth1G\""
par NUCESNetwork.headOffice.coreSwitch1.dataPort$o[4].channel disabled false
attr mutable ""
par NUCESNetwork.headOffice.coreSwitch1.dataPort$o[4].channel delay 1e-07s
attr mutable ""
attr unit s
par NUCESNetwork.headOffice.coreSwitch1.dataPort$o[4].channel datarate 1e+09bps
attr mutable ""
attr unit bps
par NUCESNetwork.headOffice.coreSwitch1.dataPort$o[4].channel ber 0
attr mutable ""
par NUCESNetwork.headOffice.coreSwitch1.dataPort$o[4].channel per 0
attr mutable ""
par NUCESNetwork.headOffice.videoServer.gate$o.channel typename "\"cnetfinal.Eth1G\""
par NUCESNetwork.headOffice.videoServer.gate$o.channel disabled false
attr mutable ""
par NUCESNetwork.headOffice.videoServer.gate$o.channel delay 1e-07s
attr mutable ""
attr unit s
par NUCESNetwork.headOffice.videoServer.gate$o.channel datarate 1e+09bps
attr mutable ""
attr unit bps
par NUCESNetwork.headOffice.videoServer.gate$o.channel ber 0
attr mutable ""
par NUCESNetwork.headOffice.videoServer.gate$o.channel per 0
attr mutable ""
par NUCESNetwork.headOffice.coreSwitch2.dataPort$o[4].channel typename "\"cnetfinal.Eth1G\""
par NUCESNetwork.headOffice.coreSwitch2.dataPort$o[4].channel disabled false
attr mutable ""
par NUCESNetwork.headOffice.coreSwitch2.dataPort$o[4].channel delay 1e-07s
attr mutable ""
attr unit s
par NUCESNetwork.headOffice.coreSwitch2.dataPort$o[4].channel datarate 1e+09bps
attr mutable ""
attr unit bps
par NUCESNetwork.headOffice.coreSwitch2.dataPort$o[4].channel ber 0
attr mutable ""
par NUCESNetwork.headOffice.coreSwitch2.dataPort$o[4].channel per 0
attr mutable ""
par NUCESNetwork.headOffice.iotServer.gate$o.channel typename "\"cnetfinal.Eth1G\""
par NUCESNetwork.headOffice.iotServer.gate$o.channel disabled false
attr mutable ""
par NUCESNetwork.headOffice.iotServer.gate$o.channel delay 1e-07s
attr mutable ""
attr unit s
par NUCESNetwork.headOffice.iotServer.gate$o.channel datarate 1e+09bps
attr mutable ""
attr unit bps
par NUCESNetwork.headOffice.iotServer.gate$o.channel ber 0
attr mutable ""
par NUCESNetwork.headOffice.iotServer.gate$o.channel per 0
attr mutable ""
par NUCESNetwork.headOffice.coreSwitch1 typename "\"cnetfinal.OpenFlowSwitch\""
par NUCESNetwork.headOffice.coreSwitch1 switchId "\"\""
par NUCESNetwork.headOffice.coreSwitch1 flowTableCapacity 1000
par NUCESNetwork.headOffice.coreSwitch1 isCore true
par NUCESNetwork.headOffice.coreSwitch1 vlanId -1
par NUCESNetwork.headOffice.coreSwitch1 enableVlan false
scalar NUCESNetwork.headOffice.coreSwitch1 tableMisses 2136
scalar NUCESNetwork.headOffice.coreSwitch1 tableHits 0
scalar NUCESNetwork.headOffice.coreSwitch1 avgProcessingTime 0
scalar NUCESNetwork.headOffice.coreSwitch1 flowTableSize 0
scalar NUCESNetwork.headOffice.coreSwitch1 finalHitRatio 0
statistic NUCESNetwork.headOffice.coreSwitch1 packetProcessingTime:stats
field count 0
field mean nan
field stddev nan
field min nan
field max nan
field sum 0
field sqrsum 0
attr recordingmode stats
attr title "Packet processing time"
attr unit s
par NUCESNetwork.headOffice.coreSwitch2 typename "\"cnetfinal.OpenFlowSwitch\""
par NUCESNetwork.headOffice.coreSwitch2 switchId "\"\""
par NUCESNetwork.headOffice.coreSwitch2 flowTableCapacity 1000
par NUCESNetwork.headOffice.coreSwitch2 isCore true
par NUCESNetwork.headOffice.coreSwitch2 vlanId -1
par NUCESNetwork.headOffice.coreSwitch2 enableVlan false
scalar NUCESNetwork.headOffice.coreSwitch2 tableMisses 1410
scalar NUCESNetwork.headOffice.coreSwitch2 tableHits 0
scalar NUCESNetwork.headOffice.coreSwitch2 avgProcessingTime 0
scalar NUCESNetwork.headOffice.coreSwitch2 flowTableSize 0
scalar NUCESNetwork.headOffice.coreSwitch2 finalHitRatio 0
statistic NUCESNetwork.headOffice.coreSwitch2 packetProcessingTime:stats
field count 0
field mean nan
field stddev nan
field min nan
field max nan
field sum 0
field sqrsum 0
attr recordingmode stats
attr title "Packet processing time"
attr unit s
par NUCESNetwork.headOffice.coreSwitch3 typename "\"cnetfinal.OpenFlowSwitch\""
par NUCESNetwork.headOffice.coreSwitch3 switchId "\"\""
par NUCESNetwork.headOffice.coreSwitch3 flowTableCapacity 1000
par NUCESNetwork.headOffice.coreSwitch3 isCore true
par NUCESNetwork.headOffice.coreSwitch3 vlanId -1
par NUCESNetwork.headOffice.coreSwitch3 enableVlan false
scalar NUCESNetwork.headOffice.coreSwitch3 tableMisses 0
scalar NUCESNetwork.headOffice.coreSwitch3 tableHits 0
scalar NUCESNetwork.headOffice.coreSwitch3 avgProcessingTime nan
scalar NUCESNetwork.headOffice.coreSwitch3 flowTableSize 0
scalar NUCESNetwork.headOffice.coreSwitch3 finalHitRatio 0
statistic NUCESNetwork.headOffice.coreSwitch3 packetProcessingTime:stats
field count 0
field mean nan
field stddev nan
field min nan
field max nan
field sum 0
field sqrsum 0
attr recordingmode stats
attr title "Packet processing time"
attr unit s
par NUCESNetwork.headOffice.dnsServer typename "\"cnetfinal.Host\""
par NUCESNetwork.headOffice.dnsServer macAddress "\"auto\""
par NUCESNetwork.headOffice.dnsServer networkAddress "\"10.0.0.1\""
attr mutable ""
par NUCESNetwork.headOffice.dnsServer isFirewallModule false
scalar NUCESNetwork.headOffice.dnsServer isFirewall 0
par NUCESNetwork.headOffice.dhcpServer typename "\"cnetfinal.Host\""
par NUCESNetwork.headOffice.dhcpServer macAddress "\"auto\""
par NUCESNetwork.headOffice.dhcpServer networkAddress "\"10.0.0.2\""
attr mutable ""
par NUCESNetwork.headOffice.dhcpServer isFirewallModule false
scalar NUCESNetwork.headOffice.dhcpServer isFirewall 0
par NUCESNetwork.headOffice.firewallServer typename "\"cnetfinal.Host\""
par NUCESNetwork.headOffice.firewallServer macAddress "\"auto\""
par NUCESNetwork.headOffice.firewallServer networkAddress "\"10.0.0.3\""
attr mutable ""
par NUCESNetwork.headOffice.firewallServer isFirewallModule true
scalar NUCESNetwork.headOffice.firewallServer isFirewall 1
par NUCESNetwork.headOffice.edgeServer1 typename "\"cnetfinal.Host\""
par NUCESNetwork.headOffice.edgeServer1 macAddress "\"auto\""
par NUCESNetwork.headOffice.edgeServer1 networkAddress "\"10.0.0.4\""
attr mutable ""
par NUCESNetwork.headOffice.edgeServer1 isFirewallModule false
scalar NUCESNetwork.headOffice.edgeServer1 isFirewall 0
par NUCESNetwork.headOffice.edgeServer2 typename "\"cnetfinal.Host\""
par NUCESNetwork.headOffice.edgeServer2 macAddress "\"auto\""
par NUCESNetwork.headOffice.edgeServer2 networkAddress "\"10.0.0.5\""
attr mutable ""
par NUCESNetwork.headOffice.edgeServer2 isFirewallModule false
scalar NUCESNetwork.headOffice.edgeServer2 isFirewall 0
par NUCESNetwork.headOffice.videoServer typename "\"cnetfinal.Host\""
par NUCESNetwork.headOffice.videoServer macAddress "\"auto\""
par NUCESNetwork.headOffice.videoServer networkAddress "\"10.0.0.6\""
attr mutable ""
par NUCESNetwork.headOffice.videoServer isFirewallModule false
scalar NUCESNetwork.headOffice.videoServer isFirewall 0
par NUCESNetwork.headOffice.iotServer typename "\"cnetfinal.Host\""
par NUCESNetwork.headOffice.iotServer macAddress "\"auto\""
par NUCESNetwork.headOffice.iotServer networkAddress "\"10.0.0.7\""
attr mutable ""
par NUCESNetwork.headOffice.iotServer isFirewallModule false
scalar NUCESNetwork.headOffice.iotServer isFirewall 0
par NUCESNetwork.headOffice.controllerSwitch typename "\"cnetfinal.OpenFlowSwitch\""
par NUCESNetwork.headOffice.controllerSwitch switchId "\"\""
par NUCESNetwork.headOffice.controllerSwitch flowTableCapacity 100
par NUCESNetwork.headOffice.controllerSwitch isCore true
par NUCESNetwork.headOffice.controllerSwitch vlanId -1
par NUCESNetwork.headOffice.controllerSwitch enableVlan false
scalar NUCESNetwork.headOffice.controllerSwitch tableMisses 3546
scalar NUCESNetwork.headOffice.controllerSwitch tableHits 0
scalar NUCESNetwork.headOffice.controllerSwitch avgProcessingTime 0
scalar NUCESNetwork.headOffice.controllerSwitch flowTableSize 0
scalar NUCESNetwork.headOffice.controllerSwitch finalHitRatio 0
statistic NUCESNetwork.headOffice.controllerSwitch packetProcessingTime:stats
field count 0
field mean nan
field stddev nan
field min nan
field max nan
field sum 0
field sqrsum 0
attr recordingmode stats
attr title "Packet processing time"
attr unit s
par NUCESNetwork.headOffice typename "\"cnetfinal.HeadOffice\""
par NUCESNetwork.islamabadCampus.localController.gate$o[0].channel typename "\"cnetfinal.Eth1G\""
par NUCESNetwork.islamabadCampus.localController.gate$o[0].channel disabled false
attr mutable ""
par NUCESNetwork.islamabadCampus.localController.gate$o[0].channel delay 1e-07s
attr mutable ""
attr unit s
par NUCESNetwork.islamabadCampus.localController.gate$o[0].channel datarate 1e+09bps
attr mutable ""
attr unit bps
par NUCESNetwork.islamabadCampus.localController.gate$o[0].channel ber 0
attr mutable ""
par NUCESNetwork.islamabadCampus.localController.gate$o[0].channel per 0
attr mutable ""
par NUCESNetwork.islamabadCampus.coreSwitch1.controllerOut.channel typename "\"cnetfinal.Eth1G\""
par NUCESNetwork.islamabadCampus.coreSwitch1.controllerOut.channel disabled false
attr mutable ""
par NUCESNetwork.islamabadCampus.coreSwitch1.controllerOut.channel delay 1e-07s
attr mutable ""
attr unit s
par NUCESNetwork.islamabadCampus.coreSwitch1.controllerOut.channel datarate 1e+09bps
attr mutable ""
attr unit bps
par NUCESNetwork.islamabadCampus.coreSwitch1.controllerOut.channel ber 0
attr mutable ""
par NUCESNetwork.islamabadCampus.coreSwitch1.controllerOut.channel per 0
attr mutable ""
par NUCESNetwork.islamabadCampus.localController.gate$o[1].channel typename "\"cnetfinal.Eth1G\""
par NUCESNetwork.islamabadCampus.localController.gate$o[1].channel disabled false
attr mutable ""
par NUCESNetwork.islamabadCampus.localController.gate$o[1].channel delay 1e-07s
attr mutable ""
attr unit s
par NUCESNetwork.islamabadCampus.localController.gate$o[1].channel datarate 1e+09bps
attr mutable ""
attr unit bps
par NUCESNetwork.islamabadCampus.localController.gate$o[1].channel ber 0
attr mutable ""
par NUCESNetwork.islamabadCampus.localController.gate$o[1].channel per 0
attr mutable ""
par NUCESNetwork.islamabadCampus.coreSwitch2.controllerOut.channel typename "\"cnetfinal.Eth1G\""
par NUCESNetwork.islamabadCampus.coreSwitch2.controllerOut.channel disabled false
attr mutable ""
par NUCESNetwork.islamabadCampus.coreSwitch2.controllerOut.channel delay 1e-07s
attr mutable ""
attr unit s
par NUCESNetwork.islamabadCampus.coreSwitch2.controllerOut.channel datarate 1e+09bps
attr mutable ""
attr unit bps
par NUCESNetwork.islamabadCampus.coreSwitch2.controllerOut.channel ber 0
attr mutable ""
par NUCESNetwork.islamabadCampus.coreSwitch2.controllerOut.channel per 0
attr mutable ""
par NUCESNetwork.islamabadCampus.localController.gate$o[2].channel typename "\"cnetfinal.Eth1G\""
par NUCESNetwork.islamabadCampus.localController.gate$o[2].channel disabled false
attr mutable ""
par NUCESNetwork.islamabadCampus.localController.gate$o[2].channel delay 1e-07s
attr mutable ""
attr unit s
par NUCESNetwork.islamabadCampus.localController.gate$o[2].channel datarate 1e+09bps
attr mutable ""
attr unit bps
par NUCESNetwork.islamabadCampus.localController.gate$o[2].channel ber 0
attr mutable ""
par NUCESNetwork.islamabadCampus.localController.gate$o[2].channel per 0
attr mutable ""
par NUCESNetwork.islamabadCampus.coreSwitch3.controllerOut.channel typename "\"cnetfinal.Eth1G\""
par NUCESNetwork.islamabadCampus.coreSwitch3.controllerOut.channel disabled false
attr mutable ""
par NUCESNetwork.islamabadCampus.coreSwitch3.controllerOut.channel delay 1e-07s
attr mutable ""
attr unit s
par NUCESNetwork.islamabadCampus.coreSwitch3.controllerOut.channel datarate 1e+09bps
attr mutable ""
attr unit bps
par NUCESNetwork.islamabadCampus.coreSwitch3.controllerOut.channel ber 0
attr mutable ""
par NUCESNetwork.islamabadCampus.coreSwitch3.controllerOut.channel per 0
attr mutable ""
par NUCESNetwork.islamabadCampus.coreSwitch1.dataPort$o[0].channel typename "\"cnetfinal.Eth1G\""
par NUCESNetwork.islamabadCampus.coreSwitch1.dataPort$o[0].channel disabled false
attr mutable ""
par NUCESNetwork.islamabadCampus.coreSwitch1.dataPort$o[0].channel delay 1e-07s
attr mutable ""
attr unit s
par NUCESNetwork.islamabadCampus.coreSwitch1.dataPort$o[0].channel datarate 1e+09bps
attr mutable ""
attr unit bps
par NUCESNetwork.islamabadCampus.coreSwitch1.dataPort$o[0].channel ber 0
attr mutable ""
par NUCESNetwork.islamabadCampus.coreSwitch1.dataPort$o[0].channel per 0
attr mutable ""
par NUCESNetwork.islamabadCampus.coreSwitch2.dataPort$o[0].channel typename "\"cnetfinal.Eth1G\""
par NUCESNetwork.islamabadCampus.coreSwitch2.dataPort$o[0].channel disabled false
attr mutable ""
par NUCESNetwork.islamabadCampus.coreSwitch2.dataPort$o[0].channel delay 1e-07s
attr mutable ""
attr unit s
par NUCESNetwork.islamabadCampus.coreSwitch2.dataPort$o[0].channel datarate 1e+09bps
attr mutable ""
attr unit bps
par NUCESNetwork.islamabadCampus.coreSwitch2.dataPort$o[0].channel ber 0
attr mutable ""
par NUCESNetwork.islamabadCampus.coreSwitch2.dataPort$o[0].channel per 0
attr mutable ""
par NUCESNetwork.islamabadCampus.coreSwitch2.dataPort$o[1].channel typename "\"cnetfinal.Eth1G\""
par NUCESNetwork.islamabadCampus.coreSwitch2.dataPort$o[1].channel disabled false
attr mutable ""
par NUCESNetwork.islamabadCampus.coreSwitch2.dataPort$o[1].channel delay 1e-07s
attr mutable ""
attr unit s
par NUCESNetwork.islamabadCampus.coreSwitch2.dataPort$o[1].channel datarate 1e+09bps
attr mutable ""
attr unit bps
par NUCESNetwork.islamabadCampus.coreSwitch2.dataPort$o[1].channel ber 0
attr mutable ""
par NUCESNetwork.islamabadCampus.coreSwitch2.dataPort$o[1].channel per 0
attr mutable ""
par NUCESNetwork.islamabadCampus.coreSwitch3.dataPort$o[0].channel typename "\"cnetfinal.Eth1G\""
par NUCESNetwork.islamabadCampus.coreSwitch3.dataPort$o[0].channel disabled false
attr mutable ""
par NUCESNetwork.islamabadCampus.coreSwitch3.dataPort$o[0].channel delay 1e-07s
attr mutable ""
attr unit s
par NUCESNetwork.islamabadCampus.coreSwitch3.dataPort$o[0].channel datarate 1e+09bps
attr mutable ""
attr unit bps
par NUCESNetwork.islamabadCampus.coreSwitch3.dataPort$o[0].channel ber 0
attr mutable ""
par NUCESNetwork.islamabadCampus.coreSwitch3.dataPort$o[0].channel per 0
attr mutable ""
par NUCESNetwork.islamabadCampus.coreSwitch3.dataPort$o[1].channel typename "\"cnetfinal.Eth1G\""
par NUCESNetwork.islamabadCampus.coreSwitch3.dataPort$o[1].channel disabled false
attr mutable ""
par NUCESNetwork.islamabadCampus.coreSwitch3.dataPort$o[1].channel delay 1e-07s
attr mutable ""
attr unit s
par NUCESNetwork.islamabadCampus.coreSwitch3.dataPort$o[1].channel datarate 1e+09bps
attr mutable ""
attr unit bps
par NUCESNetwork.islamabadCampus.coreSwitch3.dataPort$o[1].channel ber 0
attr mutable ""
par NUCESNetwork.islamabadCampus.coreSwitch3.dataPort$o[1].channel per 0
attr mutable ""
par NUCESNetwork.islamabadCampus.coreSwitch1.dataPort$o[1].channel typename "\"cnetfinal.Eth1G\""
par NUCESNetwork.islamabadCampus.coreSwitch1.dataPort$o[1].channel disabled false
attr mutable ""
par NUCESNetwork.islamabadCampus.coreSwitch1.dataPort$o[1].channel delay 1e-07s
attr mutable ""
attr unit s
par NUCESNetwork.islamabadCampus.coreSwitch1.dataPort$o[1].channel datarate 1e+09bps
attr mutable ""
attr unit bps
par NUCESNetwork.islamabadCampus.coreSwitch1.dataPort$o[1].channel ber 0
attr mutable ""
par NUCESNetwork.islamabadCampus.coreSwitch1.dataPort$o[1].channel per 0
attr mutable ""
par NUCESNetwork.islamabadCampus.coreSwitch1.dataPort$o[2].channel typename "\"cnetfinal.Eth1G\""
par NUCESNetwork.islamabadCampus.coreSwitch1.dataPort$o[2].channel disabled false
attr mutable ""
par NUCESNetwork.islamabadCampus.coreSwitch1.dataPort$o[2].channel delay 1e-07s
attr mutable ""
attr unit s
par NUCESNetwork.islamabadCampus.coreSwitch1.dataPort$o[2].channel datarate 1e+09bps
attr mutable ""
attr unit bps
par NUCESNetwork.islamabadCampus.coreSwitch1.dataPort$o[2].channel ber 0
attr mutable ""
par NUCESNetwork.islamabadCampus.coreSwitch1.dataPort$o[2].channel per 0
attr mutable ""
par NUCESNetwork.islamabadCampus.lab[0].uplink$o.channel typename "\"cnetfinal.Eth1G\""
par NUCESNetwork.islamabadCampus.lab[0].uplink$o.channel disabled false
attr mutable ""
par NUCESNetwork.islamabadCampus.lab[0].uplink$o.channel delay 1e-07s
attr mutable ""
attr unit s
par NUCESNetwork.islamabadCampus.lab[0].uplink$o.channel datarate 1e+09bps
attr mutable ""
attr unit bps
par NUCESNetwork.islamabadCampus.lab[0].uplink$o.channel ber 0
attr mutable ""
par NUCESNetwork.islamabadCampus.lab[0].uplink$o.channel per 0
attr mutable ""
par NUCESNetwork.islamabadCampus.lab[0].controllerGate$o.channel typename "\"cnetfinal.Eth1G\""
par NUCESNetwork.islamabadCampus.lab[0].controllerGate$o.channel disabled false
attr mutable ""
par NUCESNetwork.islamabadCampus.lab[0].controllerGate$o.channel delay 1e-07s
attr mutable ""
attr unit s
par NUCESNetwork.islamabadCampus.lab[0].controllerGate$o.channel datarate 1e+09bps
attr mutable ""
attr unit bps
par NUCESNetwork.islamabadCampus.lab[0].controllerGate$o.channel ber 0
attr mutable ""
par NUCESNetwork.islamabadCampus.lab[0].controllerGate$o.channel per 0
attr mutable ""
par NUCESNetwork.islamabadCampus.coreSwitch2.dataPort$o[2].channel typename "\"cnetfinal.Eth1G\""
par NUCESNetwork.islamabadCampus.coreSwitch2.dataPort$o[2].channel disabled false
attr mutable ""
par NUCESNetwork.islamabadCampus.coreSwitch2.dataPort$o[2].channel delay 1e-07s
attr mutable ""
attr unit s
par NUCESNetwork.islamabadCampus.coreSwitch2.dataPort$o[2].channel datarate 1e+09bps
attr mutable ""
attr unit bps
par NUCESNetwork.islamabadCampus.coreSwitch2.dataPort$o[2].channel ber 0
attr mutable ""
par NUCESNetwork.islamabadCampus.coreSwitch2.dataPort$o[2].channel per 0
attr mutable ""
par NUCESNetwork.islamabadCampus.lab[1].uplink$o.channel typename "\"cnetfinal.Eth1G\""
par NUCESNetwork.islamabadCampus.lab[1].uplink$o.channel disabled false
attr mutable ""
par NUCESNetwork.islamabadCampus.lab[1].uplink$o.channel delay 1e-07s
attr mutable ""
attr unit s
par NUCESNetwork.islamabadCampus.lab[1].uplink$o.channel datarate 1e+09bps
attr mutable ""
attr unit bps
par NUCESNetwork.islamabadCampus.lab[1].uplink$o.channel ber 0
attr mutable ""
par NUCESNetwork.islamabadCampus.lab[1].uplink$o.channel per 0
attr mutable ""
par NUCESNetwork.islamabadCampus.lab[1].controllerGate$o.channel typename "\"cnetfinal.Eth1G\""
par NUCESNetwork.islamabadCampus.lab[1].controllerGate$o.channel disabled false
attr mutable ""
par NUCESNetwork.islamabadCampus.lab[1].controllerGate$o.channel delay 1e-07s
attr mutable ""
attr unit s
par NUCESNetwork.islamabadCampus.lab[1].controllerGate$o.channel datarate 1e+09bps
attr mutable ""
attr unit bps
par NUCESNetwork.islamabadCampus.lab[1].controllerGate$o.channel ber 0
attr mutable ""
par NUCESNetwork.islamabadCampus.lab[1].controllerGate$o.channel per 0
attr mutable ""
par NUCESNetwork.islamabadCampus.coreSwitch3.dataPort$o[2].channel typename "\"cnetfinal.Eth1G\""
par NUCESNetwork.islamabadCampus.coreSwitch3.dataPort$o[2].channel disabled false
attr mutable ""
par NUCESNetwork.islamabadCampus.coreSwitch3.dataPort$o[2].channel delay 1e-07s
attr mutable ""
attr unit s
par NUCESNetwork.islamabadCampus.coreSwitch3.dataPort$o[2].channel datarate 1e+09bps
attr mutable ""
attr unit bps
par NUCESNetwork.islamabadCampus.coreSwitch3.dataPort$o[2].channel ber 0
attr mutable ""
par NUCESNetwork.islamabadCampus.coreSwitch3.dataPort$o[2].channel per 0
attr mutable ""
par NUCESNetwork.islamabadCampus.lab[2].uplink$o.channel typename "\"cnetfinal.Eth1G\""
par NUCESNetwork.islamabadCampus.lab[2].uplink$o.channel disabled false
attr mutable ""
par NUCESNetwork.islamabadCampus.lab[2].uplink$o.channel delay 1e-07s
attr mutable ""
attr unit s
par NUCESNetwork.islamabadCampus.lab[2].uplink$o.channel datarate 1e+09bps
attr mutable ""
attr unit bps
par NUCESNetwork.islamabadCampus.lab[2].uplink$o.channel ber 0
attr mutable ""
par NUCESNetwork.islamabadCampus.lab[2].uplink$o.channel per 0
attr mutable ""
par NUCESNetwork.islamabadCampus.lab[2].controllerGate$o.channel typename "\"cnetfinal.Eth1G\""
par NUCESNetwork.islamabadCampus.lab[2].controllerGate$o.channel disabled false
attr mutable ""
par NUCESNetwork.islamabadCampus.lab[2].controllerGate$o.channel delay 1e-07s
attr mutable ""
attr unit s
par NUCESNetwork.islamabadCampus.lab[2].controllerGate$o.channel datarate 1e+09bps
attr mutable ""
attr unit bps
par NUCESNetwork.islamabadCampus.lab[2].controllerGate$o.channel ber 0
attr mutable ""
par NUCESNetwork.islamabadCampus.lab[2].controllerGate$o.channel per 0
attr mutable ""
par NUCESNetwork.islamabadCampus.coreSwitch1.dataPort$o[3].channel typename "\"cnetfinal.Eth1G\""
par NUCESNetwork.islamabadCampus.coreSwitch1.dataPort$o[3].channel disabled false
attr mutable ""
par NUCESNetwork.islamabadCampus.coreSwitch1.dataPort$o[3].channel delay 1e-07s
attr mutable ""
attr unit s
par NUCESNetwork.islamabadCampus.coreSwitch1.dataPort$o[3].channel datarate 1e+09bps
attr mutable ""
attr unit bps
par NUCESNetwork.islamabadCampus.coreSwitch1.dataPort$o[3].channel ber 0
attr mutable ""
par NUCESNetwork.islamabadCampus.coreSwitch1.dataPort$o[3].channel per 0
attr mutable ""
par NUCESNetwork.islamabadCampus.lab[3].uplink$o.channel typename "\"cnetfinal.Eth1G\""
par NUCESNetwork.islamabadCampus.lab[3].uplink$o.channel disabled false
attr mutable ""
par NUCESNetwork.islamabadCampus.lab[3].uplink$o.channel delay 1e-07s
attr mutable ""
attr unit s
par NUCESNetwork.islamabadCampus.lab[3].uplink$o.channel datarate 1e+09bps
attr mutable ""
attr unit bps
par NUCESNetwork.islamabadCampus.lab[3].uplink$o.channel ber 0
attr mutable ""
par NUCESNetwork.islamabadCampus.lab[3].uplink$o.channel per 0
attr mutable ""
par NUCESNetwork.islamabadCampus.lab[3].controllerGate$o.channel typename "\"cnetfinal.Eth1G\""
par NUCESNetwork.islamabadCampus.lab[3].controllerGate$o.channel disabled false
attr mutable ""
par NUCESNetwork.islamabadCampus.lab[3].controllerGate$o.channel delay 1e-07s
attr mutable ""
attr unit s
par NUCESNetwork.islamabadCampus.lab[3].controllerGate$o.channel datarate 1e+09bps
attr mutable ""
attr unit bps
par NUCESNetwork.islamabadCampus.lab[3].controllerGate$o.channel ber 0
attr mutable ""
par NUCESNetwork.islamabadCampus.lab[3].controllerGate$o.channel per 0
attr mutable ""
par NUCESNetwork.islamabadCampus.coreSwitch2.dataPort$o[3].channel typename "\"cnetfinal.Eth1G\""
par NUCESNetwork.islamabadCampus.coreSwitch2.dataPort$o[3].channel disabled false
attr mutable ""
par NUCESNetwork.islamabadCampus.coreSwitch2.dataPort$o[3].channel delay 1e-07s
attr mutable ""
attr unit s
par NUCESNetwork.islamabadCampus.coreSwitch2.dataPort$o[3].channel datarate 1e+09bps
attr mutable ""
attr unit bps
par NUCESNetwork.islamabadCampus.coreSwitch2.dataPort$o[3].channel ber 0
attr mutable ""
par NUCESNetwork.islamabadCampus.coreSwitch2.dataPort$o[3].channel per 0
attr mutable ""
par NUCESNetwork.islamabadCampus.lab[4].uplink$o.channel typename "\"cnetfinal.Eth1G\""
par NUCESNetwork.islamabadCampus.lab[4].uplink$o.channel disabled false
attr mutable ""
par NUCESNetwork.islamabadCampus.lab[4].uplink$o.channel delay 1e-07s
attr mutable ""
attr unit s
par NUCESNetwork.islamabadCampus.lab[4].uplink$o.channel datarate 1e+09bps
attr mutable ""
attr unit bps
par NUCESNetwork.islamabadCampus.lab[4].uplink$o.channel ber 0
attr mutable ""
par NUCESNetwork.islamabadCampus.lab[4].uplink$o.channel per 0
attr mutable ""
par NUCESNetwork.islamabadCampus.lab[4].controllerGate$o.channel typename "\"cnetfinal.Eth1G\""
par NUCESNetwork.islamabadCampus.lab[4].controllerGate$o.channel disabled false
attr mutable ""
par NUCESNetwork.islamabadCampus.lab[4].controllerGate$o.channel delay 1e-07s
attr mutable ""
attr unit s
par NUCESNetwork.islamabadCampus.lab[4].controllerGate$o.channel datarate 1e+09bps
attr mutable ""
attr unit bps
par NUCESNetwork.islamabadCampus.lab[4].controllerGate$o.channel ber 0
attr mutable ""
par NUCESNetwork.islamabadCampus.lab[4].controllerGate$o.channel per 0
attr mutable ""
par NUCESNetwork.islamabadCampus.coreSwitch3.dataPort$o[3].channel typename "\"cnetfinal.Eth1G\""
par NUCESNetwork.islamabadCampus.coreSwitch3.dataPort$o[3].channel disabled false
attr mutable ""
par NUCESNetwork.islamabadCampus.coreSwitch3.dataPort$o[3].channel delay 1e-07s
attr mutable ""
attr unit s
par NUCESNetwork.islamabadCampus.coreSwitch3.dataPort$o[3].channel datarate 1e+09bps
attr mutable ""
attr unit bps
par NUCESNetwork.islamabadCampus.coreSwitch3.dataPort$o[3].channel ber 0
attr mutable ""
par NUCESNetwork.islamabadCampus.coreSwitch3.dataPort$o[3].channel per 0
attr mutable ""
par NUCESNetwork.islamabadCampus.lab[5].uplink$o.channel typename "\"cnetfinal.Eth1G\""
par NUCESNetwork.islamabadCampus.lab[5].uplink$o.channel disabled false
attr mutable ""
par NUCESNetwork.islamabadCampus.lab[5].uplink$o.channel delay 1e-07s
attr mutable ""
attr unit s
par NUCESNetwork.islamabadCampus.lab[5].uplink$o.channel datarate 1e+09bps
attr mutable ""
attr unit bps
par NUCESNetwork.islamabadCampus.lab[5].uplink$o.channel ber 0
attr mutable ""
par NUCESNetwork.islamabadCampus.lab[5].uplink$o.channel per 0
attr mutable ""
par NUCESNetwork.islamabadCampus.lab[5].controllerGate$o.channel typename "\"cnetfinal.Eth1G\""
par NUCESNetwork.islamabadCampus.lab[5].controllerGate$o.channel disabled false
attr mutable ""
par NUCESNetwork.islamabadCampus.lab[5].controllerGate$o.channel delay 1e-07s
attr mutable ""
attr unit s
par NUCESNetwork.islamabadCampus.lab[5].controllerGate$o.channel datarate 1e+09bps
attr mutable ""
attr unit bps
par NUCESNetwork.islamabadCampus.lab[5].controllerGate$o.channel ber 0
attr mutable ""
par NUCESNetwork.islamabadCampus.lab[5].controllerGate$o.channel per 0
attr mutable ""
par NUCESNetwork.islamabadCampus.coreSwitch1.dataPort$o[4].channel typename "\"cnetfinal.Eth1G\""
par NUCESNetwork.islamabadCampus.coreSwitch1.dataPort$o[4].channel disabled false
attr mutable ""
par NUCESNetwork.islamabadCampus.coreSwitch1.dataPort$o[4].channel delay 1e-07s
attr mutable ""
attr unit s
par NUCESNetwork.islamabadCampus.coreSwitch1.dataPort$o[4].channel datarate 1e+09bps
attr mutable ""
attr unit bps
par NUCESNetwork.islamabadCampus.coreSwitch1.dataPort$o[4].channel ber 0
attr mutable ""
par NUCESNetwork.islamabadCampus.coreSwitch1.dataPort$o[4].channel per 0
attr mutable ""
par NUCESNetwork.islamabadCampus.lab[6].uplink$o.channel typename "\"cnetfinal.Eth1G\""
par NUCESNetwork.islamabadCampus.lab[6].uplink$o.channel disabled false
attr mutable ""
par NUCESNetwork.islamabadCampus.lab[6].uplink$o.channel delay 1e-07s
attr mutable ""
attr unit s
par NUCESNetwork.islamabadCampus.lab[6].uplink$o.channel datarate 1e+09bps
attr mutable ""
attr unit bps
par NUCESNetwork.islamabadCampus.lab[6].uplink$o.channel ber 0
attr mutable ""
par NUCESNetwork.islamabadCampus.lab[6].uplink$o.channel per 0
attr mutable ""
par NUCESNetwork.islamabadCampus.lab[6].controllerGate$o.channel typename "\"cnetfinal.Eth1G\""
par NUCESNetwork.islamabadCampus.lab[6].controllerGate$o.channel disabled false
attr mutable ""
par NUCESNetwork.islamabadCampus.lab[6].controllerGate$o.channel delay 1e-07s
attr mutable ""
attr unit s
par NUCESNetwork.islamabadCampus.lab[6].controllerGate$o.channel datarate 1e+09bps
attr mutable ""
attr unit bps
par NUCESNetwork.islamabadCampus.lab[6].controllerGate$o.channel ber 0
attr mutable ""
par NUCESNetwork.islamabadCampus.lab[6].controllerGate$o.channel per 0
attr mutable ""
par NUCESNetwork.islamabadCampus.coreSwitch2.dataPort$o[4].channel typename "\"cnetfinal.Eth1G\""
par NUCESNetwork.islamabadCampus.coreSwitch2.dataPort$o[4].channel disabled false
attr mutable ""
par NUCESNetwork.islamabadCampus.coreSwitch2.dataPort$o[4].channel delay 1e-07s
attr mutable ""
attr unit s
par NUCESNetwork.islamabadCampus.coreSwitch2.dataPort$o[4].channel datarate 1e+09bps
attr mutable ""
attr unit bps
par NUCESNetwork.islamabadCampus.coreSwitch2.dataPort$o[4].channel ber 0
attr mutable ""
par NUCESNetwork.islamabadCampus.coreSwitch2.dataPort$o[4].channel per 0
attr mutable ""
par NUCESNetwork.islamabadCampus.lab[7].uplink$o.channel typename "\"cnetfinal.Eth1G\""
par NUCESNetwork.islamabadCampus.lab[7].uplink$o.channel disabled false
attr mutable ""
par NUCESNetwork.islamabadCampus.lab[7].uplink$o.channel delay 1e-07s
attr mutable ""
attr unit s
par NUCESNetwork.islamabadCampus.lab[7].uplink$o.channel datarate 1e+09bps
attr mutable ""
attr unit bps
par NUCESNetwork.islamabadCampus.lab[7].uplink$o.channel ber 0
attr mutable ""
par NUCESNetwork.islamabadCampus.lab[7].uplink$o.channel per 0
attr mutable ""
par NUCESNetwork.islamabadCampus.lab[7].controllerGate$o.channel typename "\"cnetfinal.Eth1G\""
par NUCESNetwork.islamabadCampus.lab[7].controllerGate$o.channel disabled false
attr mutable ""
par NUCESNetwork.islamabadCampus.lab[7].controllerGate$o.channel delay 1e-07s
attr mutable ""
attr unit s
par NUCESNetwork.islamabadCampus.lab[7].controllerGate$o.channel datarate 1e+09bps
attr mutable ""
attr unit bps
par NUCESNetwork.islamabadCampus.lab[7].controllerGate$o.channel ber 0
attr mutable ""
par NUCESNetwork.islamabadCampus.lab[7].controllerGate$o.channel per 0
attr mutable ""
par NUCESNetwork.islamabadCampus.coreSwitch3.dataPort$o[4].channel typename "\"cnetfinal.Eth1G\""
par NUCESNetwork.islamabadCampus.coreSwitch3.dataPort$o[4].channel disabled false
attr mutable ""
par NUCESNetwork.islamabadCampus.coreSwitch3.dataPort$o[4].channel delay 1e-07s
attr mutable ""
attr unit s
par NUCESNetwork.islamabadCampus.coreSwitch3.dataPort$o[4].channel datarate 1e+09bps
attr mutable ""
attr unit bps
par NUCESNetwork.islamabadCampus.coreSwitch3.dataPort$o[4].channel ber 0
attr mutable ""
par NUCESNetwork.islamabadCampus.coreSwitch3.dataPort$o[4].channel per 0
attr mutable ""
par NUCESNetwork.islamabadCampus.lab[8].uplink$o.channel typename "\"cnetfinal.Eth1G\""
par NUCESNetwork.islamabadCampus.lab[8].uplink$o.channel disabled false
attr mutable ""
par NUCESNetwork.islamabadCampus.lab[8].uplink$o.channel delay 1e-07s
attr mutable ""
attr unit s
par NUCESNetwork.islamabadCampus.lab[8].uplink$o.channel datarate 1e+09bps
attr mutable ""
attr unit bps
par NUCESNetwork.islamabadCampus.lab[8].uplink$o.channel ber 0
attr mutable ""
par NUCESNetwork.islamabadCampus.lab[8].uplink$o.channel per 0
attr mutable ""
par NUCESNetwork.islamabadCampus.lab[8].controllerGate$o.channel typename "\"cnetfinal.Eth1G\""
par NUCESNetwork.islamabadCampus.lab[8].controllerGate$o.channel disabled false
attr mutable ""
par NUCESNetwork.islamabadCampus.lab[8].controllerGate$o.channel delay 1e-07s
attr mutable ""
attr unit s
par NUCESNetwork.islamabadCampus.lab[8].controllerGate$o.channel datarate 1e+09bps
attr mutable ""
attr unit bps
par NUCESNetwork.islamabadCampus.lab[8].controllerGate$o.channel ber 0
attr mutable ""
par NUCESNetwork.islamabadCampus.lab[8].controllerGate$o.channel per 0
attr mutable ""
par NUCESNetwork.islamabadCampus.coreSwitch1.dataPort$o[5].channel typename "\"cnetfinal.Eth1G\""
par NUCESNetwork.islamabadCampus.coreSwitch1.dataPort$o[5].channel disabled false
attr mutable ""
par NUCESNetwork.islamabadCampus.coreSwitch1.dataPort$o[5].channel delay 1e-07s
attr mutable ""
attr unit s
par NUCESNetwork.islamabadCampus.coreSwitch1.dataPort$o[5].channel datarate 1e+09bps
attr mutable ""
attr unit bps
par NUCESNetwork.islamabadCampus.coreSwitch1.dataPort$o[5].channel ber 0
attr mutable ""
par NUCESNetwork.islamabadCampus.coreSwitch1.dataPort$o[5].channel per 0
attr mutable ""
par NUCESNetwork.islamabadCampus.lab[9].uplink$o.channel typename "\"cnetfinal.Eth1G\""
par NUCESNetwork.islamabadCampus.lab[9].uplink$o.channel disabled false
attr mutable ""
par NUCESNetwork.islamabadCampus.lab[9].uplink$o.channel delay 1e-07s
attr mutable ""
attr unit s
par NUCESNetwork.islamabadCampus.lab[9].uplink$o.channel datarate 1e+09bps
attr mutable ""
attr unit bps
par NUCESNetwork.islamabadCampus.lab[9].uplink$o.channel ber 0
attr mutable ""
par NUCESNetwork.islamabadCampus.lab[9].uplink$o.channel per 0
attr mutable ""
par NUCESNetwork.islamabadCampus.lab[9].controllerGate$o.channel typename "\"cnetfinal.Eth1G\""
par NUCESNetwork.islamabadCampus.lab[9].controllerGate$o.channel disabled false
attr mutable ""
par NUCESNetwork.islamabadCampus.lab[9].controllerGate$o.channel delay 1e-07s
attr mutable ""
attr unit s
par NUCESNetwork.islamabadCampus.lab[9].controllerGate$o.channel datarate 1e+09bps
attr mutable ""
attr unit bps
par NUCESNetwork.islamabadCampus.lab[9].controllerGate$o.channel ber 0
attr mutable ""
par NUCESNetwork.islamabadCampus.lab[9].controllerGate$o.channel per 0
attr mutable ""
par NUCESNetwork.islamabadCampus.coreSwitch1.dataPort$o[6].channel typename "\"cnetfinal.Eth1G\""
par NUCESNetwork.islamabadCampus.coreSwitch1.dataPort$o[6].channel disabled false
attr mutable ""
par NUCESNetwork.islamabadCampus.coreSwitch1.dataPort$o[6].channel delay 1e-07s
attr mutable ""
attr unit s
par NUCESNetwork.islamabadCampus.coreSwitch1.dataPort$o[6].channel datarate 1e+09bps
attr mutable ""
attr unit bps
par NUCESNetwork.islamabadCampus.coreSwitch1.dataPort$o[6].channel ber 0
attr mutable ""
par NUCESNetwork.islamabadCampus.coreSwitch1.dataPort$o[6].channel per 0
attr mutable ""
par NUCESNetwork.islamabadCampus.edgeServer.gate$o.channel typename "\"cnetfinal.Eth1G\""
par NUCESNetwork.islamabadCampus.edgeServer.gate$o.channel disabled false
attr mutable ""
par NUCESNetwork.islamabadCampus.edgeServer.gate$o.channel delay 1e-07s
attr mutable ""
attr unit s
par NUCESNetwork.islamabadCampus.edgeServer.gate$o.channel datarate 1e+09bps
attr mutable ""
attr unit bps
par NUCESNetwork.islamabadCampus.edgeServer.gate$o.channel ber 0
attr mutable ""
par NUCESNetwork.islamabadCampus.edgeServer.gate$o.channel per 0
attr mutable ""
par NUCESNetwork.islamabadCampus.coreSwitch2.dataPort$o[5].channel typename "\"cnetfinal.Eth1G\""
par NUCESNetwork.islamabadCampus.coreSwitch2.dataPort$o[5].channel disabled false
attr mutable ""
par NUCESNetwork.islamabadCampus.coreSwitch2.dataPort$o[5].channel delay 1e-07s
attr mutable ""
attr unit s
par NUCESNetwork.islamabadCampus.coreSwitch2.dataPort$o[5].channel datarate 1e+09bps
attr mutable ""
attr unit bps
par NUCESNetwork.islamabadCampus.coreSwitch2.dataPort$o[5].channel ber 0
attr mutable ""
par NUCESNetwork.islamabadCampus.coreSwitch2.dataPort$o[5].channel per 0
attr mutable ""
par NUCESNetwork.islamabadCampus.videoServer.gate$o.channel typename "\"cnetfinal.Eth1G\""
par NUCESNetwork.islamabadCampus.videoServer.gate$o.channel disabled false
attr mutable ""
par NUCESNetwork.islamabadCampus.videoServer.gate$o.channel delay 1e-07s
attr mutable ""
attr unit s
par NUCESNetwork.islamabadCampus.videoServer.gate$o.channel datarate 1e+09bps
attr mutable ""
attr unit bps
par NUCESNetwork.islamabadCampus.videoServer.gate$o.channel ber 0
attr mutable ""
par NUCESNetwork.islamabadCampus.videoServer.gate$o.channel per 0
attr mutable ""
par NUCESNetwork.islamabadCampus.coreSwitch3.dataPort$o[5].channel typename "\"cnetfinal.Eth1G\""
par NUCESNetwork.islamabadCampus.coreSwitch3.dataPort$o[5].channel disabled false
attr mutable ""
par NUCESNetwork.islamabadCampus.coreSwitch3.dataPort$o[5].channel delay 1e-07s
attr mutable ""
attr unit s
par NUCESNetwork.islamabadCampus.coreSwitch3.dataPort$o[5].channel datarate 1e+09bps
attr mutable ""
attr unit bps
par NUCESNetwork.islamabadCampus.coreSwitch3.dataPort$o[5].channel ber 0
attr mutable ""
par NUCESNetwork.islamabadCampus.coreSwitch3.dataPort$o[5].channel per 0
attr mutable ""
par NUCESNetwork.islamabadCampus.iotServer.gate$o.channel typename "\"cnetfinal.Eth1G\""
par NUCESNetwork.islamabadCampus.iotServer.gate$o.channel disabled false
attr mutable ""
par NUCESNetwork.islamabadCampus.iotServer.gate$o.channel delay 1e-07s
attr mutable ""
attr unit s
par NUCESNetwork.islamabadCampus.iotServer.gate$o.channel datarate 1e+09bps
attr mutable ""
attr unit bps
par NUCESNetwork.islamabadCampus.iotServer.gate$o.channel ber 0
attr mutable ""
par NUCESNetwork.islamabadCampus.iotServer.gate$o.channel per 0
attr mutable ""
par NUCESNetwork.islamabadCampus.localController typename "\"cnetfinal.LocalController\""
par NUCESNetwork.islamabadCampus.localController controllerType "\"local\""
par NUCESNetwork.islamabadCampus.localController flowTableSize 5000
par NUCESNetwork.islamabadCampus.localController processingDelay 0.001s
attr unit s
par NUCESNetwork.islamabadCampus.localController campusName "\"\""
par NUCESNetwork.islamabadCampus.localController updateInterval 5s
attr unit s
scalar NUCESNetwork.islamabadCampus.localController avgFlowSetupTime nan
scalar NUCESNetwork.islamabadCampus.localController maxFlowSetupTime nan
scalar NUCESNetwork.islamabadCampus.localController totalFlowRequests 0
statistic NUCESNetwork.islamabadCampus.localController flowSetupTime:stats
field count 0
field mean nan
field stddev nan
field min nan
field max nan
field sum 0
field sqrsum 0
attr recordingmode stats
attr title "Flow setup time"
attr unit s
par NUCESNetwork.islamabadCampus.coreSwitch1 typename "\"cnetfinal.OpenFlowSwitch\""
par NUCESNetwork.islamabadCampus.coreSwitch1 switchId "\"\""
par NUCESNetwork.islamabadCampus.coreSwitch1 flowTableCapacity 1000
par NUCESNetwork.islamabadCampus.coreSwitch1 isCore true
par NUCESNetwork.islamabadCampus.coreSwitch1 vlanId -1
par NUCESNetwork.islamabadCampus.coreSwitch1 enableVlan false
scalar NUCESNetwork.islamabadCampus.coreSwitch1 tableMisses 0
scalar NUCESNetwork.islamabadCampus.coreSwitch1 tableHits 0
scalar NUCESNetwork.islamabadCampus.coreSwitch1 avgProcessingTime nan
scalar NUCESNetwork.islamabadCampus.coreSwitch1 flowTableSize 0
scalar NUCESNetwork.islamabadCampus.coreSwitch1 finalHitRatio 0
statistic NUCESNetwork.islamabadCampus.coreSwitch1 packetProcessingTime:stats
field count 0
field mean nan
field stddev nan
field min nan
field max nan
field sum 0
field sqrsum 0
attr recordingmode stats
attr title "Packet processing time"
attr unit s
par NUCESNetwork.islamabadCampus.coreSwitch2 typename "\"cnetfinal.OpenFlowSwitch\""
par NUCESNetwork.islamabadCampus.coreSwitch2 switchId "\"\""
par NUCESNetwork.islamabadCampus.coreSwitch2 flowTableCapacity 1000
par NUCESNetwork.islamabadCampus.coreSwitch2 isCore true
par NUCESNetwork.islamabadCampus.coreSwitch2 vlanId -1
par NUCESNetwork.islamabadCampus.coreSwitch2 enableVlan false
scalar NUCESNetwork.islamabadCampus.coreSwitch2 tableMisses 726
scalar NUCESNetwork.islamabadCampus.coreSwitch2 tableHits 0
scalar NUCESNetwork.islamabadCampus.coreSwitch2 avgProcessingTime 0
scalar NUCESNetwork.islamabadCampus.coreSwitch2 flowTableSize 0
scalar NUCESNetwork.islamabadCampus.coreSwitch2 finalHitRatio 0
statistic NUCESNetwork.islamabadCampus.coreSwitch2 packetProcessingTime:stats
field count 0
field mean nan
field stddev nan
field min nan
field max nan
field sum 0
field sqrsum 0
attr recordingmode stats
attr title "Packet processing time"
attr unit s
par NUCESNetwork.islamabadCampus.coreSwitch3 typename "\"cnetfinal.OpenFlowSwitch\""
par NUCESNetwork.islamabadCampus.coreSwitch3 switchId "\"\""
par NUCESNetwork.islamabadCampus.coreSwitch3 flowTableCapacity 1000
par NUCESNetwork.islamabadCampus.coreSwitch3 isCore true
par NUCESNetwork.islamabadCampus.coreSwitch3 vlanId -1
par NUCESNetwork.islamabadCampus.coreSwitch3 enableVlan false
scalar NUCESNetwork.islamabadCampus.coreSwitch3 tableMisses 735
scalar NUCESNetwork.islamabadCampus.coreSwitch3 tableHits 0
scalar NUCESNetwork.islamabadCampus.coreSwitch3 avgProcessingTime 0
scalar NUCESNetwork.islamabadCampus.coreSwitch3 flowTableSize 0
scalar NUCESNetwork.islamabadCampus.coreSwitch3 finalHitRatio 0
statistic NUCESNetwork.islamabadCampus.coreSwitch3 packetProcessingTime:stats
field count 0
field mean nan
field stddev nan
field min nan
field max nan
field sum 0
field sqrsum 0
attr recordingmode stats
attr title "Packet processing time"
attr unit s
par NUCESNetwork.islamabadCampus.lab[0].system[0].gate$o.channel typename "\"cnetfinal.Eth100M\""
par NUCESNetwork.islamabadCampus.lab[0].system[0].gate$o.channel disabled false
attr mutable ""
par NUCESNetwork.islamabadCampus.lab[0].system[0].gate$o.channel delay 1e-07s
attr mutable ""
attr unit s
par NUCESNetwork.islamabadCampus.lab[0].system[0].gate$o.channel datarate 1e+08bps
attr mutable ""
attr unit bps
par NUCESNetwork.islamabadCampus.lab[0].system[0].gate$o.channel ber 0
attr mutable ""
par NUCESNetwork.islamabadCampus.lab[0].system[0].gate$o.channel per 0
attr mutable ""
par NUCESNetwork.islamabadCampus.lab[0].labSwitch.dataPort$o[0].channel typename "\"cnetfinal.Eth100M\""
par NUCESNetwork.islamabadCampus.lab[0].labSwitch.dataPort$o[0].channel disabled false
attr mutable ""
par NUCESNetwork.islamabadCampus.lab[0].labSwitch.dataPort$o[0].channel delay 1e-07s
attr mutable ""
attr unit s
par NUCESNetwork.islamabadCampus.lab[0].labSwitch.dataPort$o[0].channel datarate 1e+08bps
attr mutable ""
attr unit bps
par NUCESNetwork.islamabadCampus.lab[0].labSwitch.dataPort$o[0].channel ber 0
attr mutable ""
par NUCESNetwork.islamabadCampus.lab[0].labSwitch.dataPort$o[0].channel per 0
attr mutable ""
par NUCESNetwork.islamabadCampus.lab[0].system[1].gate$o.channel typename "\"cnetfinal.Eth100M\""
par NUCESNetwork.islamabadCampus.lab[0].system[1].gate$o.channel disabled false
attr mutable ""
par NUCESNetwork.islamabadCampus.lab[0].system[1].gate$o.channel delay 1e-07s
attr mutable ""
attr unit s
par NUCESNetwork.islamabadCampus.lab[0].system[1].gate$o.channel datarate 1e+08bps
attr mutable ""
attr unit bps
par NUCESNetwork.islamabadCampus.lab[0].system[1].gate$o.channel ber 0
attr mutable ""
par NUCESNetwork.islamabadCampus.lab[0].system[1].gate$o.channel per 0
attr mutable ""
par NUCESNetwork.islamabadCampus.lab[0].labSwitch.dataPort$o[1].channel typename "\"cnetfinal.Eth100M\""
par NUCESNetwork.islamabadCampus.lab[0].labSwitch.dataPort$o[1].channel disabled false
attr mutable ""
par NUCESNetwork.islamabadCampus.lab[0].labSwitch.dataPort$o[1].channel delay 1e-07s
attr mutable ""
attr unit s
par NUCESNetwork.islamabadCampus.lab[0].labSwitch.dataPort$o[1].channel datarate 1e+08bps
attr mutable ""
attr unit bps
par NUCESNetwork.islamabadCampus.lab[0].labSwitch.dataPort$o[1].channel ber 0
attr mutable ""
par NUCESNetwork.islamabadCampus.lab[0].labSwitch.dataPort$o[1].channel per 0
attr mutable ""
par NUCESNetwork.islamabadCampus.lab[0].system[2].gate$o.channel typename "\"cnetfinal.Eth100M\""
par NUCESNetwork.islamabadCampus.lab[0].system[2].gate$o.channel disabled false
attr mutable ""
par NUCESNetwork.islamabadCampus.lab[0].system[2].gate$o.channel delay 1e-07s
attr mutable ""
attr unit s
par NUCESNetwork.islamabadCampus.lab[0].system[2].gate$o.channel datarate 1e+08bps
attr mutable ""
attr unit bps
par NUCESNetwork.islamabadCampus.lab[0].system[2].gate$o.channel ber 0
attr mutable ""
par NUCESNetwork.islamabadCampus.lab[0].system[2].gate$o.channel per 0
attr mutable ""
par NUCESNetwork.islamabadCampus.lab[0].labSwitch.dataPort$o[2].channel typename "\"cnetfinal.Eth100M\""
par NUCESNetwork.islamabadCampus.lab[0].labSwitch.dataPort$o[2].channel disabled false
attr mutable ""
par NUCESNetwork.islamabadCampus.lab[0].labSwitch.dataPort$o[2].channel delay 1e-07s
attr mutable ""
attr unit s
par NUCESNetwork.islamabadCampus.lab[0].labSwitch.dataPort$o[2].channel datarate 1e+08bps
attr mutable ""
attr unit bps
par NUCESNetwork.islamabadCampus.lab[0].labSwitch.dataPort$o[2].channel ber 0
attr mutable ""
par NUCESNetwork.islamabadCampus.lab[0].labSwitch.dataPort$o[2].channel per 0
attr mutable ""
par NUCESNetwork.islamabadCampus.lab[0].system[3].gate$o.channel typename "\"cnetfinal.Eth100M\""
par NUCESNetwork.islamabadCampus.lab[0].system[3].gate$o.channel disabled false
attr mutable ""
par NUCESNetwork.islamabadCampus.lab[0].system[3].gate$o.channel delay 1e-07s
attr mutable ""
attr unit s
par NUCESNetwork.islamabadCampus.lab[0].system[3].gate$o.channel datarate 1e+08bps
attr mutable ""
attr unit bps
par NUCESNetwork.islamabadCampus.lab[0].system[3].gate$o.channel ber 0
attr mutable ""
par NUCESNetwork.islamabadCampus.lab[0].system[3].gate$o.channel per 0
attr mutable ""
par NUCESNetwork.islamabadCampus.lab[0].labSwitch.dataPort$o[3].channel typename "\"cnetfinal.Eth100M\""
par NUCESNetwork.islamabadCampus.lab[0].labSwitch.dataPort$o[3].channel disabled false
attr mutable ""
par NUCESNetwork.islamabadCampus.lab[0].labSwitch.dataPort$o[3].channel delay 1e-07s
attr mutable ""
attr unit s
par NUCESNetwork.islamabadCampus.lab[0].labSwitch.dataPort$o[3].channel datarate 1e+08bps
attr mutable ""
attr unit bps
par NUCESNetwork.islamabadCampus.lab[0].labSwitch.dataPort$o[3].channel ber 0
attr mutable ""
par NUCESNetwork.islamabadCampus.lab[0].labSwitch.dataPort$o[3].channel per 0
attr mutable ""
par NUCESNetwork.islamabadCampus.lab[0].system[4].gate$o.channel typename "\"cnetfinal.Eth100M\""
par NUCESNetwork.islamabadCampus.lab[0].system[4].gate$o.channel disabled false
attr mutable ""
par NUCESNetwork.islamabadCampus.lab[0].system[4].gate$o.channel delay 1e-07s
attr mutable ""
attr unit s
par NUCESNetwork.islamabadCampus.lab[0].system[4].gate$o.channel datarate 1e+08bps
attr mutable ""
attr unit bps
par NUCESNetwork.islamabadCampus.lab[0].system[4].gate$o.channel ber 0
attr mutable ""
par NUCESNetwork.islamabadCampus.lab[0].system[4].gate$o.channel per 0
attr mutable ""
par NUCESNetwork.islamabadCampus.lab[0].labSwitch.dataPort$o[4].channel typename "\"cnetfinal.Eth100M\""
par NUCESNetwork.islamabadCampus.lab[0].labSwitch.dataPort$o[4].channel disabled false
attr mutable ""
par NUCESNetwork.islamabadCampus.lab[0].labSwitch.dataPort$o[4].channel delay 1e-07s
attr mutable ""
attr unit s
par NUCESNetwork.islamabadCampus.lab[0].labSwitch.dataPort$o[4].channel datarate 1e+08bps
attr mutable ""
attr unit bps
[...]
attr mutable ""
attr unit s
par NUCESNetwork.multanCampus.lab[4].labSwitch.dataPort$o[24].channel datarate 1e+08bps
attr mutable ""
attr unit bps
par NUCESNetwork.multanCampus.lab[4].labSwitch.dataPort$o[24].channel ber 0
attr mutable ""
par NUCESNetwork.multanCampus.lab[4].labSwitch.dataPort$o[24].channel per 0
attr mutable ""
par NUCESNetwork.multanCampus.lab[4].system[25].gate$o.channel typename "\"cnetfinal.Eth100M\""
par NUCESNetwork.multanCampus.lab[4].system[25].gate$o.channel disabled false
attr mutable ""
par NUCESNetwork.multanCampus.lab[4].system[25].gate$o.channel delay 1e-07s
attr mutable ""
attr unit s
par NUCESNetwork.multanCampus.lab[4].system[25].gate$o.channel datarate 1e+08bps
attr mutable ""
attr unit bps
par NUCESNetwork.multanCampus.lab[4].system[25].gate$o.channel ber 0
attr mutable ""
par NUCESNetwork.multanCampus.lab[4].system[25].gate$o.channel per 0
attr mutable ""
par NUCESNetwork.multanCampus.lab[4].labSwitch.dataPort$o[25].channel typename "\"cnetfinal.Eth100M\""
par NUCESNetwork.multanCampus.lab[4].labSwitch.dataPort$o[25].channel disabled false
attr mutable ""
par NUCESNetwork.multanCampus.lab[4].labSwitch.dataPort$o[25].channel delay 1e-07s
attr mutable ""
attr unit s
par NUCESNetwork.multanCampus.lab[4].labSwitch.dataPort$o[25].channel datarate 1e+08bps
attr mutable ""
attr unit bps
par NUCESNetwork.multanCampus.lab[4].labSwitch.dataPort$o[25].channel ber 0
attr mutable ""
par NUCESNetwork.multanCampus.lab[4].labSwitch.dataPort$o[25].channel per 0
attr mutable ""
par NUCESNetwork.multanCampus.lab[4].system[26].gate$o.channel typename "\"cnetfinal.Eth100M\""
par NUCESNetwork.multanCampus.lab[4].system[26].gate$o.channel disabled false
attr mutable ""
par NUCESNetwork.multanCampus.lab[4].system[26].gate$o.channel delay 1e-07s
attr mutable ""
attr unit s
par NUCESNetwork.multanCampus.lab[4].system[26].gate$o.channel datarate 1e+08bps
attr mutable ""
attr unit bps
par NUCESNetwork.multanCampus.lab[4].system[26].gate$o.channel ber 0
attr mutable ""
par NUCESNetwork.multanCampus.lab[4].system[26].gate$o.channel per 0
attr mutable ""
par NUCESNetwork.multanCampus.lab[4].labSwitch.dataPort$o[26].channel typename "\"cnetfinal.Eth100M\""
par NUCESNetwork.multanCampus.lab[4].labSwitch.dataPort$o[26].channel disabled false
attr mutable ""
par NUCESNetwork.multanCampus.lab[4].labSwitch.dataPort$o[26].channel delay 1e-07s
attr mutable ""
attr unit s
par NUCESNetwork.multanCampus.lab[4].labSwitch.dataPort$o[26].channel datarate 1e+08bps
attr mutable ""
attr unit bps
par NUCESNetwork.multanCampus.lab[4].labSwitch.dataPort$o[26].channel ber 0
attr mutable ""
par NUCESNetwork.multanCampus.lab[4].labSwitch.dataPort$o[26].channel per 0
attr mutable ""
par NUCESNetwork.multanCampus.lab[4].system[27].gate$o.channel typename "\"cnetfinal.Eth100M\""
par NUCESNetwork.multanCampus.lab[4].system[27].gate$o.channel disabled false
attr mutable ""
par NUCESNetwork.multanCampus.lab[4].system[27].gate$o.channel delay 1e-07s
attr mutable ""
attr unit s
par NUCESNetwork.multanCampus.lab[4].system[27].gate$o.channel datarate 1e+08bps
attr mutable ""
attr unit bps
par NUCESNetwork.multanCampus.lab[4].system[27].gate$o.channel ber 0
attr mutable ""
par NUCESNetwork.multanCampus.lab[4].system[27].gate$o.channel per 0
attr mutable ""
par NUCESNetwork.multanCampus.lab[4].labSwitch.dataPort$o[27].channel typename "\"cnetfinal.Eth100M\""
par NUCESNetwork.multanCampus.lab[4].labSwitch.dataPort$o[27].channel disabled false
attr mutable ""
par NUCESNetwork.multanCampus.lab[4].labSwitch.dataPort$o[27].channel delay 1e-07s
attr mutable ""
attr unit s
par NUCESNetwork.multanCampus.lab[4].labSwitch.dataPort$o[27].channel datarate 1e+08bps
attr mutable ""
attr unit bps
par NUCESNetwork.multanCampus.lab[4].labSwitch.dataPort$o[27].channel ber 0
attr mutable ""
par NUCESNetwork.multanCampus.lab[4].labSwitch.dataPort$o[27].channel per 0
attr mutable ""
par NUCESNetwork.multanCampus.lab[4].system[28].gate$o.channel typename "\"cnetfinal.Eth100M\""
par NUCESNetwork.multanCampus.lab[4].system[28].gate$o.channel disabled false
attr mutable ""
par NUCESNetwork.multanCampus.lab[4].system[28].gate$o.channel delay 1e-07s
attr mutable ""
attr unit s
par NUCESNetwork.multanCampus.lab[4].system[28].gate$o.channel datarate 1e+08bps
attr mutable ""
attr unit bps
par NUCESNetwork.multanCampus.lab[4].system[28].gate$o.channel ber 0
attr mutable ""
par NUCESNetwork.multanCampus.lab[4].system[28].gate$o.channel per 0
attr mutable ""
par NUCESNetwork.multanCampus.lab[4].labSwitch.dataPort$o[28].channel typename "\"cnetfinal.Eth100M\""
par NUCESNetwork.multanCampus.lab[4].labSwitch.dataPort$o[28].channel disabled false
attr mutable ""
par NUCESNetwork.multanCampus.lab[4].labSwitch.dataPort$o[28].channel delay 1e-07s
attr mutable ""
attr unit s
par NUCESNetwork.multanCampus.lab[4].labSwitch.dataPort$o[28].channel datarate 1e+08bps
attr mutable ""
attr unit bps
par NUCESNetwork.multanCampus.lab[4].labSwitch.dataPort$o[28].channel ber 0
attr mutable ""
par NUCESNetwork.multanCampus.lab[4].labSwitch.dataPort$o[28].channel per 0
attr mutable ""
par NUCESNetwork.multanCampus.lab[4].system[29].gate$o.channel typename "\"cnetfinal.Eth100M\""
par NUCESNetwork.multanCampus.lab[4].system[29].gate$o.channel disabled false
attr mutable ""
par NUCESNetwork.multanCampus.lab[4].system[29].gate$o.channel delay 1e-07s
attr mutable ""
attr unit s
par NUCESNetwork.multanCampus.lab[4].system[29].gate$o.channel datarate 1e+08bps
attr mutable ""
attr unit bps
par NUCESNetwork.multanCampus.lab[4].system[29].gate$o.channel ber 0
attr mutable ""
par NUCESNetwork.multanCampus.lab[4].system[29].gate$o.channel per 0
attr mutable ""
par NUCESNetwork.multanCampus.lab[4].labSwitch.dataPort$o[29].channel typename "\"cnetfinal.Eth100M\""
par NUCESNetwork.multanCampus.lab[4].labSwitch.dataPort$o[29].channel disabled false
attr mutable ""
par NUCESNetwork.multanCampus.lab[4].labSwitch.dataPort$o[29].channel delay 1e-07s
attr mutable ""
attr unit s
par NUCESNetwork.multanCampus.lab[4].labSwitch.dataPort$o[29].channel datarate 1e+08bps
attr mutable ""
attr unit bps
par NUCESNetwork.multanCampus.lab[4].labSwitch.dataPort$o[29].channel ber 0
attr mutable ""
par NUCESNetwork.multanCampus.lab[4].labSwitch.dataPort$o[29].channel per 0
attr mutable ""
par NUCESNetwork.multanCampus.lab[4].labSwitch typename "\"cnetfinal.OpenFlowSwitch\""
par NUCESNetwork.multanCampus.lab[4].labSwitch switchId "\"\""
par NUCESNetwork.multanCampus.lab[4].labSwitch flowTableCapacity 100
par NUCESNetwork.multanCampus.lab[4].labSwitch isCore false
par NUCESNetwork.multanCampus.lab[4].labSwitch vlanId -1
par NUCESNetwork.multanCampus.lab[4].labSwitch enableVlan false
scalar NUCESNetwork.multanCampus.lab[4].labSwitch tableMisses 21806
scalar NUCESNetwork.multanCampus.lab[4].labSwitch tableHits 0
scalar NUCESNetwork.multanCampus.lab[4].labSwitch avgProcessingTime 0
scalar NUCESNetwork.multanCampus.lab[4].labSwitch flowTableSize 0
scalar NUCESNetwork.multanCampus.lab[4].labSwitch finalHitRatio 0
statistic NUCESNetwork.multanCampus.lab[4].labSwitch packetProcessingTime:stats
field count 0
field mean nan
field stddev nan
field min nan
field max nan
field sum 0
field sqrsum 0
attr recordingmode stats
attr title "Packet processing time"
attr unit s
par NUCESNetwork.multanCampus.lab[4].system[0] typename "\"cnetfinal.Host\""
par NUCESNetwork.multanCampus.lab[4].system[0] macAddress "\"auto\""
par NUCESNetwork.multanCampus.lab[4].system[0] networkAddress "\"10.6.5.1\""
attr mutable ""
par NUCESNetwork.multanCampus.lab[4].system[0] isFirewallModule false
scalar NUCESNetwork.multanCampus.lab[4].system[0] isFirewall 0
par NUCESNetwork.multanCampus.lab[4].system[1] typename "\"cnetfinal.Host\""
par NUCESNetwork.multanCampus.lab[4].system[1] macAddress "\"auto\""
par NUCESNetwork.multanCampus.lab[4].system[1] networkAddress "\"10.6.5.2\""
attr mutable ""
par NUCESNetwork.multanCampus.lab[4].system[1] isFirewallModule false
scalar NUCESNetwork.multanCampus.lab[4].system[1] isFirewall 0
par NUCESNetwork.multanCampus.lab[4].system[2] typename "\"cnetfinal.Host\""
par NUCESNetwork.multanCampus.lab[4].system[2] macAddress "\"auto\""
par NUCESNetwork.multanCampus.lab[4].system[2] networkAddress "\"10.6.5.3\""
attr mutable ""
par NUCESNetwork.multanCampus.lab[4].system[2] isFirewallModule false
scalar NUCESNetwork.multanCampus.lab[4].system[2] isFirewall 0
par NUCESNetwork.multanCampus.lab[4].system[3] typename "\"cnetfinal.Host\""
par NUCESNetwork.multanCampus.lab[4].system[3] macAddress "\"auto\""
par NUCESNetwork.multanCampus.lab[4].system[3] networkAddress "\"10.6.5.4\""
attr mutable ""
par NUCESNetwork.multanCampus.lab[4].system[3] isFirewallModule false
scalar NUCESNetwork.multanCampus.lab[4].system[3] isFirewall 0
par NUCESNetwork.multanCampus.lab[4].system[4] typename "\"cnetfinal.Host\""
par NUCESNetwork.multanCampus.lab[4].system[4] macAddress "\"auto\""
par NUCESNetwork.multanCampus.lab[4].system[4] networkAddress "\"10.6.5.5\""
attr mutable ""
par NUCESNetwork.multanCampus.lab[4].system[4] isFirewallModule false
scalar NUCESNetwork.multanCampus.lab[4].system[4] isFirewall 0
par NUCESNetwork.multanCampus.lab[4].system[5] typename "\"cnetfinal.Host\""
par NUCESNetwork.multanCampus.lab[4].system[5] macAddress "\"auto\""
par NUCESNetwork.multanCampus.lab[4].system[5] networkAddress "\"10.6.5.6\""
attr mutable ""
par NUCESNetwork.multanCampus.lab[4].system[5] isFirewallModule false
scalar NUCESNetwork.multanCampus.lab[4].system[5] isFirewall 0
par NUCESNetwork.multanCampus.lab[4].system[6] typename "\"cnetfinal.Host\""
par NUCESNetwork.multanCampus.lab[4].system[6] macAddress "\"auto\""
par NUCESNetwork.multanCampus.lab[4].system[6] networkAddress "\"10.6.5.7\""
attr mutable ""
par NUCESNetwork.multanCampus.lab[4].system[6] isFirewallModule false
scalar NUCESNetwork.multanCampus.lab[4].system[6] isFirewall 0
par NUCESNetwork.multanCampus.lab[4].system[7] typename "\"cnetfinal.Host\""
par NUCESNetwork.multanCampus.lab[4].system[7] macAddress "\"auto\""
par NUCESNetwork.multanCampus.lab[4].system[7] networkAddress "\"10.6.5.8\""
attr mutable ""
par NUCESNetwork.multanCampus.lab[4].system[7] isFirewallModule false
scalar NUCESNetwork.multanCampus.lab[4].system[7] isFirewall 0
par NUCESNetwork.multanCampus.lab[4].system[8] typename "\"cnetfinal.Host\""
par NUCESNetwork.multanCampus.lab[4].system[8] macAddress "\"auto\""
par NUCESNetwork.multanCampus.lab[4].system[8] networkAddress "\"10.6.5.9\""
attr mutable ""
par NUCESNetwork.multanCampus.lab[4].system[8] isFirewallModule false
scalar NUCESNetwork.multanCampus.lab[4].system[8] isFirewall 0
par NUCESNetwork.multanCampus.lab[4].system[9] typename "\"cnetfinal.Host\""
par NUCESNetwork.multanCampus.lab[4].system[9] macAddress "\"auto\""
par NUCESNetwork.multanCampus.lab[4].system[9] networkAddress "\"10.6.5.10\""
attr mutable ""
par NUCESNetwork.multanCampus.lab[4].system[9] isFirewallModule false
scalar NUCESNetwork.multanCampus.lab[4].system[9] isFirewall 0
par NUCESNetwork.multanCampus.lab[4].system[10] typename "\"cnetfinal.Host\""
par NUCESNetwork.multanCampus.lab[4].system[10] macAddress "\"auto\""
par NUCESNetwork.multanCampus.lab[4].system[10] networkAddress "\"10.6.5.11\""
attr mutable ""
par NUCESNetwork.multanCampus.lab[4].system[10] isFirewallModule false
scalar NUCESNetwork.multanCampus.lab[4].system[10] isFirewall 0
par NUCESNetwork.multanCampus.lab[4].system[11] typename "\"cnetfinal.Host\""
par NUCESNetwork.multanCampus.lab[4].system[11] macAddress "\"auto\""
par NUCESNetwork.multanCampus.lab[4].system[11] networkAddress "\"10.6.5.12\""
attr mutable ""
par NUCESNetwork.multanCampus.lab[4].system[11] isFirewallModule false
scalar NUCESNetwork.multanCampus.lab[4].system[11] isFirewall 0
par NUCESNetwork.multanCampus.lab[4].system[12] typename "\"cnetfinal.Host\""
par NUCESNetwork.multanCampus.lab[4].system[12] macAddress "\"auto\""
par NUCESNetwork.multanCampus.lab[4].system[12] networkAddress "\"10.6.5.13\""
attr mutable ""
par NUCESNetwork.multanCampus.lab[4].system[12] isFirewallModule false
scalar NUCESNetwork.multanCampus.lab[4].system[12] isFirewall 0
par NUCESNetwork.multanCampus.lab[4].system[13] typename "\"cnetfinal.Host\""
par NUCESNetwork.multanCampus.lab[4].system[13] macAddress "\"auto\""
par NUCESNetwork.multanCampus.lab[4].system[13] networkAddress "\"10.6.5.14\""
attr mutable ""
par NUCESNetwork.multanCampus.lab[4].system[13] isFirewallModule false
scalar NUCESNetwork.multanCampus.lab[4].system[13] isFirewall 0
par NUCESNetwork.multanCampus.lab[4].system[14] typename "\"cnetfinal.Host\""
par NUCESNetwork.multanCampus.lab[4].system[14] macAddress "\"auto\""
par NUCESNetwork.multanCampus.lab[4].system[14] networkAddress "\"10.6.5.15\""
attr mutable ""
par NUCESNetwork.multanCampus.lab[4].system[14] isFirewallModule false
scalar NUCESNetwork.multanCampus.lab[4].system[14] isFirewall 0
par NUCESNetwork.multanCampus.lab[4].system[15] typename "\"cnetfinal.Host\""
par NUCESNetwork.multanCampus.lab[4].system[15] macAddress "\"auto\""
par NUCESNetwork.multanCampus.lab[4].system[15] networkAddress "\"10.6.5.16\""
attr mutable ""
par NUCESNetwork.multanCampus.lab[4].system[15] isFirewallModule false
scalar NUCESNetwork.multanCampus.lab[4].system[15] isFirewall 0
par NUCESNetwork.multanCampus.lab[4].system[16] typename "\"cnetfinal.Host\""
par NUCESNetwork.multanCampus.lab[4].system[16] macAddress "\"auto\""
par NUCESNetwork.multanCampus.lab[4].system[16] networkAddress "\"10.6.5.17\""
attr mutable ""
par NUCESNetwork.multanCampus.lab[4].system[16] isFirewallModule false
scalar NUCESNetwork.multanCampus.lab[4].system[16] isFirewall 0
par NUCESNetwork.multanCampus.lab[4].system[17] typename "\"cnetfinal.Host\""
par NUCESNetwork.multanCampus.lab[4].system[17] macAddress "\"auto\""
par NUCESNetwork.multanCampus.lab[4].system[17] networkAddress "\"10.6.5.18\""
attr mutable ""
par NUCESNetwork.multanCampus.lab[4].system[17] isFirewallModule false
scalar NUCESNetwork.multanCampus.lab[4].system[17] isFirewall 0
par NUCESNetwork.multanCampus.lab[4].system[18] typename "\"cnetfinal.Host\""
par NUCESNetwork.multanCampus.lab[4].system[18] macAddress "\"auto\""
par NUCESNetwork.multanCampus.lab[4].system[18] networkAddress "\"10.6.5.19\""
attr mutable ""
par NUCESNetwork.multanCampus.lab[4].system[18] isFirewallModule false
scalar NUCESNetwork.multanCampus.lab[4].system[18] isFirewall 0
par NUCESNetwork.multanCampus.lab[4].system[19] typename "\"cnetfinal.Host\""
par NUCESNetwork.multanCampus.lab[4].system[19] macAddress "\"auto\""
par NUCESNetwork.multanCampus.lab[4].system[19] networkAddress "\"10.6.5.20\""
attr mutable ""
par NUCESNetwork.multanCampus.lab[4].system[19] isFirewallModule false
scalar NUCESNetwork.multanCampus.lab[4].system[19] isFirewall 0
par NUCESNetwork.multanCampus.lab[4].system[20] typename "\"cnetfinal.Host\""
par NUCESNetwork.multanCampus.lab[4].system[20] macAddress "\"auto\""
par NUCESNetwork.multanCampus.lab[4].system[20] networkAddress "\"10.6.5.21\""
attr mutable ""
par NUCESNetwork.multanCampus.lab[4].system[20] isFirewallModule false
scalar NUCESNetwork.multanCampus.lab[4].system[20] isFirewall 0
par NUCESNetwork.multanCampus.lab[4].system[21] typename "\"cnetfinal.Host\""
par NUCESNetwork.multanCampus.lab[4].system[21] macAddress "\"auto\""
par NUCESNetwork.multanCampus.lab[4].system[21] networkAddress "\"10.6.5.22\""
attr mutable ""
par NUCESNetwork.multanCampus.lab[4].system[21] isFirewallModule false
scalar NUCESNetwork.multanCampus.lab[4].system[21] isFirewall 0
par NUCESNetwork.multanCampus.lab[4].system[22] typename "\"cnetfinal.Host\""
par NUCESNetwork.multanCampus.lab[4].system[22] macAddress "\"auto\""
par NUCESNetwork.multanCampus.lab[4].system[22] networkAddress "\"10.6.5.23\""
attr mutable ""
par NUCESNetwork.multanCampus.lab[4].system[22] isFirewallModule false
scalar NUCESNetwork.multanCampus.lab[4].system[22] isFirewall 0
par NUCESNetwork.multanCampus.lab[4].system[23] typename "\"cnetfinal.Host\""
par NUCESNetwork.multanCampus.lab[4].system[23] macAddress "\"auto\""
par NUCESNetwork.multanCampus.lab[4].system[23] networkAddress "\"10.6.5.24\""
attr mutable ""
par NUCESNetwork.multanCampus.lab[4].system[23] isFirewallModule false
scalar NUCESNetwork.multanCampus.lab[4].system[23] isFirewall 0
par NUCESNetwork.multanCampus.lab[4].system[24] typename "\"cnetfinal.Host\""
par NUCESNetwork.multanCampus.lab[4].system[24] macAddress "\"auto\""
par NUCESNetwork.multanCampus.lab[4].system[24] networkAddress "\"10.6.5.25\""
attr mutable ""
par NUCESNetwork.multanCampus.lab[4].system[24] isFirewallModule false
scalar NUCESNetwork.multanCampus.lab[4].system[24] isFirewall 0
par NUCESNetwork.multanCampus.lab[4].system[25] typename "\"cnetfinal.Host\""
par NUCESNetwork.multanCampus.lab[4].system[25] macAddress "\"auto\""
par NUCESNetwork.multanCampus.lab[4].system[25] networkAddress "\"10.6.5.26\""
attr mutable ""
par NUCESNetwork.multanCampus.lab[4].system[25] isFirewallModule false
scalar NUCESNetwork.multanCampus.lab[4].system[25] isFirewall 0
par NUCESNetwork.multanCampus.lab[4].system[26] typename "\"cnetfinal.Host\""
par NUCESNetwork.multanCampus.lab[4].system[26] macAddress "\"auto\""
par NUCESNetwork.multanCampus.lab[4].system[26] networkAddress "\"10.6.5.27\""
attr mutable ""
par NUCESNetwork.multanCampus.lab[4].system[26] isFirewallModule false
scalar NUCESNetwork.multanCampus.lab[4].system[26] isFirewall 0
par NUCESNetwork.multanCampus.lab[4].system[27] typename "\"cnetfinal.Host\""
par NUCESNetwork.multanCampus.lab[4].system[27] macAddress "\"auto\""
par NUCESNetwork.multanCampus.lab[4].system[27] networkAddress "\"10.6.5.28\""
attr mutable ""
par NUCESNetwork.multanCampus.lab[4].system[27] isFirewallModule false
scalar NUCESNetwork.multanCampus.lab[4].system[27] isFirewall 0
par NUCESNetwork.multanCampus.lab[4].system[28] typename "\"cnetfinal.Host\""
par NUCESNetwork.multanCampus.lab[4].system[28] macAddress "\"auto\""
par NUCESNetwork.multanCampus.lab[4].system[28] networkAddress "\"10.6.5.29\""
attr mutable ""
par NUCESNetwork.multanCampus.lab[4].system[28] isFirewallModule false
scalar NUCESNetwork.multanCampus.lab[4].system[28] isFirewall 0
par NUCESNetwork.multanCampus.lab[4].system[29] typename "\"cnetfinal.Host\""
par NUCESNetwork.multanCampus.lab[4].system[29] macAddress "\"auto\""
par NUCESNetwork.multanCampus.lab[4].system[29] networkAddress "\"10.6.5.30\""
attr mutable ""
par NUCESNetwork.multanCampus.lab[4].system[29] isFirewallModule false
scalar NUCESNetwork.multanCampus.lab[4].system[29] isFirewall 0
par NUCESNetwork.multanCampus.lab[4] typename "\"cnetfinal.LabNetwork\""
par NUCESNetwork.multanCampus.lab[4] numSystems 30
par NUCESNetwork.multanCampus.edgeServer typename "\"cnetfinal.Host\""
par NUCESNetwork.multanCampus.edgeServer macAddress "\"auto\""
par NUCESNetwork.multanCampus.edgeServer networkAddress "\"\""
attr mutable ""
par NUCESNetwork.multanCampus.edgeServer isFirewallModule false
scalar NUCESNetwork.multanCampus.edgeServer isFirewall 0
par NUCESNetwork.multanCampus.videoServer typename "\"cnetfinal.Host\""
par NUCESNetwork.multanCampus.videoServer macAddress "\"auto\""
par NUCESNetwork.multanCampus.videoServer networkAddress "\"\""
attr mutable ""
par NUCESNetwork.multanCampus.videoServer isFirewallModule false
scalar NUCESNetwork.multanCampus.videoServer isFirewall 0
par NUCESNetwork.multanCampus.iotServer typename "\"cnetfinal.Host\""
par NUCESNetwork.multanCampus.iotServer macAddress "\"auto\""
par NUCESNetwork.multanCampus.iotServer networkAddress "\"\""
attr mutable ""
par NUCESNetwork.multanCampus.iotServer isFirewallModule false
scalar NUCESNetwork.multanCampus.iotServer isFirewall 0
par NUCESNetwork.multanCampus typename "\"cnetfinal.Campus\""
par NUCESNetwork.multanCampus numLabs 5
par NUCESNetwork.multanCampus systemsPerLab 30
par NUCESNetwork.multanCampus campusName "\"Multan\""
par NUCESNetwork typename "\"cnetfinal.NUCESNetwork\""

