version 3
run SmallNetworkTest-0-20250528-22:13:29-15184
attr configname SmallNetworkTest
attr datetime 20250528-22:13:29
attr datetimef 20250528-221329
attr experiment SmallNetworkTest
attr inifile omnetpp.ini
attr iterationvars ""
attr iterationvarsd ""
attr iterationvarsf ""
attr measurement ""
attr network cnetfinal.NUCESNetwork
attr processid 15184
attr repetition 0
attr replication #0
attr resultdir results
attr runnumber 0
attr seedset 0
config description "Reduced size configuration for faster testing"
config **.*.numLabs 2
config **.*.systemsPerLab 5
config sim-time-limit 10min
config network cnetfinal.NUCESNetwork
config sim-time-limit 1h
config cpu-time-limit 300s
config total-stack 7MiB
config debug-on-errors true
config print-undisposed true
config **.scalar-recording true
config **.vector-recording true
config **.configurator.configFile "\"ipconfig.xml\""
config **.centralController.flowTableSize 10000
config **.centralController.processingDelay 0.5ms
config **.*.localController.flowTableSize 5000
config **.*.localController.processingDelay 1ms
config **.*.localController.updateInterval 5s
config **.*.**.OpenFlowSwitch.flowTableCapacity 100
config **.*.coreSwitch*.flowTableCapacity 1000
config **.islamabadCampus.numLabs 10
config **.islamabadCampus.systemsPerLab 40
config **.karachiCampus.numLabs 10
config **.karachiCampus.systemsPerLab 40
config **.lahoreCampus.numLabs 10
config **.lahoreCampus.systemsPerLab 40
config **.faisalabadCampus.numLabs 5
config **.faisalabadCampus.systemsPerLab 30
config **.peshawarCampus.numLabs 5
config **.peshawarCampus.systemsPerLab 30
config **.multanCampus.numLabs 5
config **.multanCampus.systemsPerLab 30

par NUCESNetwork.centralController.gate$o[0].channel typename "\"cnetfinal.Eth1G\""
par NUCESNetwork.centralController.gate$o[0].channel disabled false
attr mutable ""
par NUCESNetwork.centralController.gate$o[0].channel delay 1e-07s
attr mutable ""
attr unit s
par NUCESNetwork.centralController.gate$o[0].channel datarate 1e+09bps
attr mutable ""
attr unit bps
par NUCESNetwork.centralController.gate$o[0].channel ber 0
attr mutable ""
par NUCESNetwork.centralController.gate$o[0].channel per 0
attr mutable ""
par NUCESNetwork.headOffice.controllerLink$o.channel typename "\"cnetfinal.Eth1G\""
par NUCESNetwork.headOffice.controllerLink$o.channel disabled false
attr mutable ""
par NUCESNetwork.headOffice.controllerLink$o.channel delay 1e-07s
attr mutable ""
attr unit s
par NUCESNetwork.headOffice.controllerLink$o.channel datarate 1e+09bps
attr mutable ""
attr unit bps
par NUCESNetwork.headOffice.controllerLink$o.channel ber 0
attr mutable ""
par NUCESNetwork.headOffice.controllerLink$o.channel per 0
attr mutable ""
par NUCESNetwork.headOffice.backbone$o[0].channel typename "\"cnetfinal.Eth1G\""
par NUCESNetwork.headOffice.backbone$o[0].channel disabled false
attr mutable ""
par NUCESNetwork.headOffice.backbone$o[0].channel delay 1e-07s
attr mutable ""
attr unit s
par NUCESNetwork.headOffice.backbone$o[0].channel datarate 1e+09bps
attr mutable ""
attr unit bps
par NUCESNetwork.headOffice.backbone$o[0].channel ber 0
attr mutable ""
par NUCESNetwork.headOffice.backbone$o[0].channel per 0
attr mutable ""
par NUCESNetwork.islamabadCampus.backbone$o.channel typename "\"cnetfinal.Eth1G\""
par NUCESNetwork.islamabadCampus.backbone$o.channel disabled false
attr mutable ""
par NUCESNetwork.islamabadCampus.backbone$o.channel delay 1e-07s
attr mutable ""
attr unit s
par NUCESNetwork.islamabadCampus.backbone$o.channel datarate 1e+09bps
attr mutable ""
attr unit bps
par NUCESNetwork.islamabadCampus.backbone$o.channel ber 0
attr mutable ""
par NUCESNetwork.islamabadCampus.backbone$o.channel per 0
attr mutable ""
par NUCESNetwork.headOffice.backbone$o[1].channel typename "\"cnetfinal.Eth1G\""
par NUCESNetwork.headOffice.backbone$o[1].channel disabled false
attr mutable ""
par NUCESNetwork.headOffice.backbone$o[1].channel delay 1e-07s
attr mutable ""
attr unit s
par NUCESNetwork.headOffice.backbone$o[1].channel datarate 1e+09bps
attr mutable ""
attr unit bps
par NUCESNetwork.headOffice.backbone$o[1].channel ber 0
attr mutable ""
par NUCESNetwork.headOffice.backbone$o[1].channel per 0
attr mutable ""
par NUCESNetwork.karachiCampus.backbone$o.channel typename "\"cnetfinal.Eth1G\""
par NUCESNetwork.karachiCampus.backbone$o.channel disabled false
attr mutable ""
par NUCESNetwork.karachiCampus.backbone$o.channel delay 1e-07s
attr mutable ""
attr unit s
par NUCESNetwork.karachiCampus.backbone$o.channel datarate 1e+09bps
attr mutable ""
attr unit bps
par NUCESNetwork.karachiCampus.backbone$o.channel ber 0
attr mutable ""
par NUCESNetwork.karachiCampus.backbone$o.channel per 0
attr mutable ""
par NUCESNetwork.headOffice.backbone$o[2].channel typename "\"cnetfinal.Eth1G\""
par NUCESNetwork.headOffice.backbone$o[2].channel disabled false
attr mutable ""
par NUCESNetwork.headOffice.backbone$o[2].channel delay 1e-07s
attr mutable ""
attr unit s
par NUCESNetwork.headOffice.backbone$o[2].channel datarate 1e+09bps
attr mutable ""
attr unit bps
par NUCESNetwork.headOffice.backbone$o[2].channel ber 0
attr mutable ""
par NUCESNetwork.headOffice.backbone$o[2].channel per 0
attr mutable ""
par NUCESNetwork.lahoreCampus.backbone$o.channel typename "\"cnetfinal.Eth1G\""
par NUCESNetwork.lahoreCampus.backbone$o.channel disabled false
attr mutable ""
par NUCESNetwork.lahoreCampus.backbone$o.channel delay 1e-07s
attr mutable ""
attr unit s
par NUCESNetwork.lahoreCampus.backbone$o.channel datarate 1e+09bps
attr mutable ""
attr unit bps
par NUCESNetwork.lahoreCampus.backbone$o.channel ber 0
attr mutable ""
par NUCESNetwork.lahoreCampus.backbone$o.channel per 0
attr mutable ""
par NUCESNetwork.headOffice.backbone$o[3].channel typename "\"cnetfinal.Eth1G\""
par NUCESNetwork.headOffice.backbone$o[3].channel disabled false
attr mutable ""
par NUCESNetwork.headOffice.backbone$o[3].channel delay 1e-07s
attr mutable ""
attr unit s
par NUCESNetwork.headOffice.backbone$o[3].channel datarate 1e+09bps
attr mutable ""
attr unit bps
par NUCESNetwork.headOffice.backbone$o[3].channel ber 0
attr mutable ""
par NUCESNetwork.headOffice.backbone$o[3].channel per 0
attr mutable ""
par NUCESNetwork.faisalabadCampus.backbone$o.channel typename "\"cnetfinal.Eth1G\""
par NUCESNetwork.faisalabadCampus.backbone$o.channel disabled false
attr mutable ""
par NUCESNetwork.faisalabadCampus.backbone$o.channel delay 1e-07s
attr mutable ""
attr unit s
par NUCESNetwork.faisalabadCampus.backbone$o.channel datarate 1e+09bps
attr mutable ""
attr unit bps
par NUCESNetwork.faisalabadCampus.backbone$o.channel ber 0
attr mutable ""
par NUCESNetwork.faisalabadCampus.backbone$o.channel per 0
attr mutable ""
par NUCESNetwork.headOffice.backbone$o[4].channel typename "\"cnetfinal.Eth1G\""
par NUCESNetwork.headOffice.backbone$o[4].channel disabled false
attr mutable ""
par NUCESNetwork.headOffice.backbone$o[4].channel delay 1e-07s
attr mutable ""
attr unit s
par NUCESNetwork.headOffice.backbone$o[4].channel datarate 1e+09bps
attr mutable ""
attr unit bps
par NUCESNetwork.headOffice.backbone$o[4].channel ber 0
attr mutable ""
par NUCESNetwork.headOffice.backbone$o[4].channel per 0
attr mutable ""
par NUCESNetwork.peshawarCampus.backbone$o.channel typename "\"cnetfinal.Eth1G\""
par NUCESNetwork.peshawarCampus.backbone$o.channel disabled false
attr mutable ""
par NUCESNetwork.peshawarCampus.backbone$o.channel delay 1e-07s
attr mutable ""
attr unit s
par NUCESNetwork.peshawarCampus.backbone$o.channel datarate 1e+09bps
attr mutable ""
attr unit bps
par NUCESNetwork.peshawarCampus.backbone$o.channel ber 0
attr mutable ""
par NUCESNetwork.peshawarCampus.backbone$o.channel per 0
attr mutable ""
par NUCESNetwork.headOffice.backbone$o[5].channel typename "\"cnetfinal.Eth1G\""
par NUCESNetwork.headOffice.backbone$o[5].channel disabled false
attr mutable ""
par NUCESNetwork.headOffice.backbone$o[5].channel delay 1e-07s
attr mutable ""
attr unit s
par NUCESNetwork.headOffice.backbone$o[5].channel datarate 1e+09bps
attr mutable ""
attr unit bps
par NUCESNetwork.headOffice.backbone$o[5].channel ber 0
attr mutable ""
par NUCESNetwork.headOffice.backbone$o[5].channel per 0
attr mutable ""
par NUCESNetwork.multanCampus.backbone$o.channel typename "\"cnetfinal.Eth1G\""
par NUCESNetwork.multanCampus.backbone$o.channel disabled false
attr mutable ""
par NUCESNetwork.multanCampus.backbone$o.channel delay 1e-07s
attr mutable ""
attr unit s
par NUCESNetwork.multanCampus.backbone$o.channel datarate 1e+09bps
attr mutable ""
attr unit bps
par NUCESNetwork.multanCampus.backbone$o.channel ber 0
attr mutable ""
par NUCESNetwork.multanCampus.backbone$o.channel per 0
attr mutable ""
par NUCESNetwork.centralController.gate$o[1].channel typename "\"cnetfinal.Eth1G\""
par NUCESNetwork.centralController.gate$o[1].channel disabled false
attr mutable ""
par NUCESNetwork.centralController.gate$o[1].channel delay 1e-07s
attr mutable ""
attr unit s
par NUCESNetwork.centralController.gate$o[1].channel datarate 1e+09bps
attr mutable ""
attr unit bps
par NUCESNetwork.centralController.gate$o[1].channel ber 0
attr mutable ""
par NUCESNetwork.centralController.gate$o[1].channel per 0
attr mutable ""
par NUCESNetwork.islamabadCampus.controllerGate$o.channel typename "\"cnetfinal.Eth1G\""
par NUCESNetwork.islamabadCampus.controllerGate$o.channel disabled false
attr mutable ""
par NUCESNetwork.islamabadCampus.controllerGate$o.channel delay 1e-07s
attr mutable ""
attr unit s
par NUCESNetwork.islamabadCampus.controllerGate$o.channel datarate 1e+09bps
attr mutable ""
attr unit bps
par NUCESNetwork.islamabadCampus.controllerGate$o.channel ber 0
attr mutable ""
par NUCESNetwork.islamabadCampus.controllerGate$o.channel per 0
attr mutable ""
par NUCESNetwork.centralController.gate$o[2].channel typename "\"cnetfinal.Eth1G\""
par NUCESNetwork.centralController.gate$o[2].channel disabled false
attr mutable ""
par NUCESNetwork.centralController.gate$o[2].channel delay 1e-07s
attr mutable ""
attr unit s
par NUCESNetwork.centralController.gate$o[2].channel datarate 1e+09bps
attr mutable ""
attr unit bps
par NUCESNetwork.centralController.gate$o[2].channel ber 0
attr mutable ""
par NUCESNetwork.centralController.gate$o[2].channel per 0
attr mutable ""
par NUCESNetwork.karachiCampus.controllerGate$o.channel typename "\"cnetfinal.Eth1G\""
par NUCESNetwork.karachiCampus.controllerGate$o.channel disabled false
attr mutable ""
par NUCESNetwork.karachiCampus.controllerGate$o.channel delay 1e-07s
attr mutable ""
attr unit s
par NUCESNetwork.karachiCampus.controllerGate$o.channel datarate 1e+09bps
attr mutable ""
attr unit bps
par NUCESNetwork.karachiCampus.controllerGate$o.channel ber 0
attr mutable ""
par NUCESNetwork.karachiCampus.controllerGate$o.channel per 0
attr mutable ""
par NUCESNetwork.centralController.gate$o[3].channel typename "\"cnetfinal.Eth1G\""
par NUCESNetwork.centralController.gate$o[3].channel disabled false
attr mutable ""
par NUCESNetwork.centralController.gate$o[3].channel delay 1e-07s
attr mutable ""
attr unit s
par NUCESNetwork.centralController.gate$o[3].channel datarate 1e+09bps
attr mutable ""
attr unit bps
par NUCESNetwork.centralController.gate$o[3].channel ber 0
attr mutable ""
par NUCESNetwork.centralController.gate$o[3].channel per 0
attr mutable ""
par NUCESNetwork.lahoreCampus.controllerGate$o.channel typename "\"cnetfinal.Eth1G\""
par NUCESNetwork.lahoreCampus.controllerGate$o.channel disabled false
attr mutable ""
par NUCESNetwork.lahoreCampus.controllerGate$o.channel delay 1e-07s
attr mutable ""
attr unit s
par NUCESNetwork.lahoreCampus.controllerGate$o.channel datarate 1e+09bps
attr mutable ""
attr unit bps
par NUCESNetwork.lahoreCampus.controllerGate$o.channel ber 0
attr mutable ""
par NUCESNetwork.lahoreCampus.controllerGate$o.channel per 0
attr mutable ""
par NUCESNetwork.centralController.gate$o[4].channel typename "\"cnetfinal.Eth1G\""
par NUCESNetwork.centralController.gate$o[4].channel disabled false
attr mutable ""
par NUCESNetwork.centralController.gate$o[4].channel delay 1e-07s
attr mutable ""
attr unit s
par NUCESNetwork.centralController.gate$o[4].channel datarate 1e+09bps
attr mutable ""
attr unit bps
par NUCESNetwork.centralController.gate$o[4].channel ber 0
attr mutable ""
par NUCESNetwork.centralController.gate$o[4].channel per 0
attr mutable ""
par NUCESNetwork.faisalabadCampus.controllerGate$o.channel typename "\"cnetfinal.Eth1G\""
par NUCESNetwork.faisalabadCampus.controllerGate$o.channel disabled false
attr mutable ""
par NUCESNetwork.faisalabadCampus.controllerGate$o.channel delay 1e-07s
attr mutable ""
attr unit s
par NUCESNetwork.faisalabadCampus.controllerGate$o.channel datarate 1e+09bps
attr mutable ""
attr unit bps
par NUCESNetwork.faisalabadCampus.controllerGate$o.channel ber 0
attr mutable ""
par NUCESNetwork.faisalabadCampus.controllerGate$o.channel per 0
attr mutable ""
par NUCESNetwork.centralController.gate$o[5].channel typename "\"cnetfinal.Eth1G\""
par NUCESNetwork.centralController.gate$o[5].channel disabled false
attr mutable ""
par NUCESNetwork.centralController.gate$o[5].channel delay 1e-07s
attr mutable ""
attr unit s
par NUCESNetwork.centralController.gate$o[5].channel datarate 1e+09bps
attr mutable ""
attr unit bps
par NUCESNetwork.centralController.gate$o[5].channel ber 0
attr mutable ""
par NUCESNetwork.centralController.gate$o[5].channel per 0
attr mutable ""
par NUCESNetwork.peshawarCampus.controllerGate$o.channel typename "\"cnetfinal.Eth1G\""
par NUCESNetwork.peshawarCampus.controllerGate$o.channel disabled false
attr mutable ""
par NUCESNetwork.peshawarCampus.controllerGate$o.channel delay 1e-07s
attr mutable ""
attr unit s
par NUCESNetwork.peshawarCampus.controllerGate$o.channel datarate 1e+09bps
attr mutable ""
attr unit bps
par NUCESNetwork.peshawarCampus.controllerGate$o.channel ber 0
attr mutable ""
par NUCESNetwork.peshawarCampus.controllerGate$o.channel per 0
attr mutable ""
par NUCESNetwork.centralController.gate$o[6].channel typename "\"cnetfinal.Eth1G\""
par NUCESNetwork.centralController.gate$o[6].channel disabled false
attr mutable ""
par NUCESNetwork.centralController.gate$o[6].channel delay 1e-07s
attr mutable ""
attr unit s
par NUCESNetwork.centralController.gate$o[6].channel datarate 1e+09bps
attr mutable ""
attr unit bps
par NUCESNetwork.centralController.gate$o[6].channel ber 0
attr mutable ""
par NUCESNetwork.centralController.gate$o[6].channel per 0
attr mutable ""
par NUCESNetwork.multanCampus.controllerGate$o.channel typename "\"cnetfinal.Eth1G\""
par NUCESNetwork.multanCampus.controllerGate$o.channel disabled false
attr mutable ""
par NUCESNetwork.multanCampus.controllerGate$o.channel delay 1e-07s
attr mutable ""
attr unit s
par NUCESNetwork.multanCampus.controllerGate$o.channel datarate 1e+09bps
attr mutable ""
attr unit bps
par NUCESNetwork.multanCampus.controllerGate$o.channel ber 0
attr mutable ""
par NUCESNetwork.multanCampus.controllerGate$o.channel per 0
attr mutable ""
par NUCESNetwork.configurator typename "\"cnetfinal.NetworkConfigurator\""
par NUCESNetwork.configurator configFile "\"ipconfig.xml\""
par NUCESNetwork.centralController typename "\"cnetfinal.CentralizedController\""
par NUCESNetwork.centralController controllerType "\"centralized\""
par NUCESNetwork.centralController flowTableSize 10000
par NUCESNetwork.centralController processingDelay 0.0005s
attr unit s
scalar NUCESNetwork.centralController avgFlowSetupTime nan
scalar NUCESNetwork.centralController maxFlowSetupTime nan
scalar NUCESNetwork.centralController totalFlowRequests 0
statistic NUCESNetwork.centralController flowSetupTime:stats
field count 0
field mean nan
field stddev nan
field min nan
field max nan
field sum 0
field sqrsum 0
attr recordingmode stats
attr title "Flow setup time"
attr unit s
par NUCESNetwork.headOffice.coreSwitch1.controllerOut.channel typename "\"cnetfinal.Eth1G\""
par NUCESNetwork.headOffice.coreSwitch1.controllerOut.channel disabled false
attr mutable ""
par NUCESNetwork.headOffice.coreSwitch1.controllerOut.channel delay 1e-07s
attr mutable ""
attr unit s
par NUCESNetwork.headOffice.coreSwitch1.controllerOut.channel datarate 1e+09bps
attr mutable ""
attr unit bps
par NUCESNetwork.headOffice.coreSwitch1.controllerOut.channel ber 0
attr mutable ""
par NUCESNetwork.headOffice.coreSwitch1.controllerOut.channel per 0
attr mutable ""
par NUCESNetwork.headOffice.controllerSwitch.dataPort$o[0].channel typename "\"cnetfinal.Eth1G\""
par NUCESNetwork.headOffice.controllerSwitch.dataPort$o[0].channel disabled false
attr mutable ""
par NUCESNetwork.headOffice.controllerSwitch.dataPort$o[0].channel delay 1e-07s
attr mutable ""
attr unit s
par NUCESNetwork.headOffice.controllerSwitch.dataPort$o[0].channel datarate 1e+09bps
attr mutable ""
attr unit bps
par NUCESNetwork.headOffice.controllerSwitch.dataPort$o[0].channel ber 0
attr mutable ""
par NUCESNetwork.headOffice.controllerSwitch.dataPort$o[0].channel per 0
attr mutable ""
par NUCESNetwork.headOffice.coreSwitch2.controllerOut.channel typename "\"cnetfinal.Eth1G\""
par NUCESNetwork.headOffice.coreSwitch2.controllerOut.channel disabled false
attr mutable ""
par NUCESNetwork.headOffice.coreSwitch2.controllerOut.channel delay 1e-07s
attr mutable ""
attr unit s
par NUCESNetwork.headOffice.coreSwitch2.controllerOut.channel datarate 1e+09bps
attr mutable ""
attr unit bps
par NUCESNetwork.headOffice.coreSwitch2.controllerOut.channel ber 0
attr mutable ""
par NUCESNetwork.headOffice.coreSwitch2.controllerOut.channel per 0
attr mutable ""
par NUCESNetwork.headOffice.controllerSwitch.dataPort$o[1].channel typename "\"cnetfinal.Eth1G\""
par NUCESNetwork.headOffice.controllerSwitch.dataPort$o[1].channel disabled false
attr mutable ""
par NUCESNetwork.headOffice.controllerSwitch.dataPort$o[1].channel delay 1e-07s
attr mutable ""
attr unit s
par NUCESNetwork.headOffice.controllerSwitch.dataPort$o[1].channel datarate 1e+09bps
attr mutable ""
attr unit bps
par NUCESNetwork.headOffice.controllerSwitch.dataPort$o[1].channel ber 0
attr mutable ""
par NUCESNetwork.headOffice.controllerSwitch.dataPort$o[1].channel per 0
attr mutable ""
par NUCESNetwork.headOffice.coreSwitch3.controllerOut.channel typename "\"cnetfinal.Eth1G\""
par NUCESNetwork.headOffice.coreSwitch3.controllerOut.channel disabled false
attr mutable ""
par NUCESNetwork.headOffice.coreSwitch3.controllerOut.channel delay 1e-07s
attr mutable ""
attr unit s
par NUCESNetwork.headOffice.coreSwitch3.controllerOut.channel datarate 1e+09bps
attr mutable ""
attr unit bps
par NUCESNetwork.headOffice.coreSwitch3.controllerOut.channel ber 0
attr mutable ""
par NUCESNetwork.headOffice.coreSwitch3.controllerOut.channel per 0
attr mutable ""
par NUCESNetwork.headOffice.controllerSwitch.dataPort$o[2].channel typename "\"cnetfinal.Eth1G\""
par NUCESNetwork.headOffice.controllerSwitch.dataPort$o[2].channel disabled false
attr mutable ""
par NUCESNetwork.headOffice.controllerSwitch.dataPort$o[2].channel delay 1e-07s
attr mutable ""
attr unit s
par NUCESNetwork.headOffice.controllerSwitch.dataPort$o[2].channel datarate 1e+09bps
attr mutable ""
attr unit bps
par NUCESNetwork.headOffice.controllerSwitch.dataPort$o[2].channel ber 0
attr mutable ""
par NUCESNetwork.headOffice.controllerSwitch.dataPort$o[2].channel per 0
attr mutable ""
par NUCESNetwork.headOffice.coreSwitch1.dataPort$o[0].channel typename "\"cnetfinal.Eth1G\""
par NUCESNetwork.headOffice.coreSwitch1.dataPort$o[0].channel disabled false
attr mutable ""
par NUCESNetwork.headOffice.coreSwitch1.dataPort$o[0].channel delay 1e-07s
attr mutable ""
attr unit s
par NUCESNetwork.headOffice.coreSwitch1.dataPort$o[0].channel datarate 1e+09bps
attr mutable ""
attr unit bps
par NUCESNetwork.headOffice.coreSwitch1.dataPort$o[0].channel ber 0
attr mutable ""
par NUCESNetwork.headOffice.coreSwitch1.dataPort$o[0].channel per 0
attr mutable ""
par NUCESNetwork.headOffice.coreSwitch2.dataPort$o[0].channel typename "\"cnetfinal.Eth1G\""
par NUCESNetwork.headOffice.coreSwitch2.dataPort$o[0].channel disabled false
attr mutable ""
par NUCESNetwork.headOffice.coreSwitch2.dataPort$o[0].channel delay 1e-07s
attr mutable ""
attr unit s
par NUCESNetwork.headOffice.coreSwitch2.dataPort$o[0].channel datarate 1e+09bps
attr mutable ""
attr unit bps
par NUCESNetwork.headOffice.coreSwitch2.dataPort$o[0].channel ber 0
attr mutable ""
par NUCESNetwork.headOffice.coreSwitch2.dataPort$o[0].channel per 0
attr mutable ""
par NUCESNetwork.headOffice.coreSwitch2.dataPort$o[1].channel typename "\"cnetfinal.Eth1G\""
par NUCESNetwork.headOffice.coreSwitch2.dataPort$o[1].channel disabled false
attr mutable ""
par NUCESNetwork.headOffice.coreSwitch2.dataPort$o[1].channel delay 1e-07s
attr mutable ""
attr unit s
par NUCESNetwork.headOffice.coreSwitch2.dataPort$o[1].channel datarate 1e+09bps
attr mutable ""
attr unit bps
par NUCESNetwork.headOffice.coreSwitch2.dataPort$o[1].channel ber 0
attr mutable ""
par NUCESNetwork.headOffice.coreSwitch2.dataPort$o[1].channel per 0
attr mutable ""
par NUCESNetwork.headOffice.coreSwitch3.dataPort$o[0].channel typename "\"cnetfinal.Eth1G\""
par NUCESNetwork.headOffice.coreSwitch3.dataPort$o[0].channel disabled false
attr mutable ""
par NUCESNetwork.headOffice.coreSwitch3.dataPort$o[0].channel delay 1e-07s
attr mutable ""
attr unit s
par NUCESNetwork.headOffice.coreSwitch3.dataPort$o[0].channel datarate 1e+09bps
attr mutable ""
attr unit bps
par NUCESNetwork.headOffice.coreSwitch3.dataPort$o[0].channel ber 0
attr mutable ""
par NUCESNetwork.headOffice.coreSwitch3.dataPort$o[0].channel per 0
attr mutable ""
par NUCESNetwork.headOffice.coreSwitch3.dataPort$o[1].channel typename "\"cnetfinal.Eth1G\""
par NUCESNetwork.headOffice.coreSwitch3.dataPort$o[1].channel disabled false
attr mutable ""
par NUCESNetwork.headOffice.coreSwitch3.dataPort$o[1].channel delay 1e-07s
attr mutable ""
attr unit s
par NUCESNetwork.headOffice.coreSwitch3.dataPort$o[1].channel datarate 1e+09bps
attr mutable ""
attr unit bps
par NUCESNetwork.headOffice.coreSwitch3.dataPort$o[1].channel ber 0
attr mutable ""
par NUCESNetwork.headOffice.coreSwitch3.dataPort$o[1].channel per 0
attr mutable ""
par NUCESNetwork.headOffice.coreSwitch1.dataPort$o[1].channel typename "\"cnetfinal.Eth1G\""
par NUCESNetwork.headOffice.coreSwitch1.dataPort$o[1].channel disabled false
attr mutable ""
par NUCESNetwork.headOffice.coreSwitch1.dataPort$o[1].channel delay 1e-07s
attr mutable ""
attr unit s
par NUCESNetwork.headOffice.coreSwitch1.dataPort$o[1].channel datarate 1e+09bps
attr mutable ""
attr unit bps
par NUCESNetwork.headOffice.coreSwitch1.dataPort$o[1].channel ber 0
attr mutable ""
par NUCESNetwork.headOffice.coreSwitch1.dataPort$o[1].channel per 0
attr mutable ""
par NUCESNetwork.headOffice.coreSwitch1.dataPort$o[2].channel typename "\"cnetfinal.Eth1G\""
par NUCESNetwork.headOffice.coreSwitch1.dataPort$o[2].channel disabled false
attr mutable ""
par NUCESNetwork.headOffice.coreSwitch1.dataPort$o[2].channel delay 1e-07s
attr mutable ""
attr unit s
par NUCESNetwork.headOffice.coreSwitch1.dataPort$o[2].channel datarate 1e+09bps
attr mutable ""
attr unit bps
par NUCESNetwork.headOffice.coreSwitch1.dataPort$o[2].channel ber 0
attr mutable ""
par NUCESNetwork.headOffice.coreSwitch1.dataPort$o[2].channel per 0
attr mutable ""
par NUCESNetwork.headOffice.dnsServer.gate$o.channel typename "\"cnetfinal.Eth1G\""
par NUCESNetwork.headOffice.dnsServer.gate$o.channel disabled false
attr mutable ""
par NUCESNetwork.headOffice.dnsServer.gate$o.channel delay 1e-07s
attr mutable ""
attr unit s
par NUCESNetwork.headOffice.dnsServer.gate$o.channel datarate 1e+09bps
attr mutable ""
attr unit bps
par NUCESNetwork.headOffice.dnsServer.gate$o.channel ber 0
attr mutable ""
par NUCESNetwork.headOffice.dnsServer.gate$o.channel per 0
attr mutable ""
par NUCESNetwork.headOffice.coreSwitch2.dataPort$o[2].channel typename "\"cnetfinal.Eth1G\""
par NUCESNetwork.headOffice.coreSwitch2.dataPort$o[2].channel disabled false
attr mutable ""
par NUCESNetwork.headOffice.coreSwitch2.dataPort$o[2].channel delay 1e-07s
attr mutable ""
attr unit s
par NUCESNetwork.headOffice.coreSwitch2.dataPort$o[2].channel datarate 1e+09bps
attr mutable ""
attr unit bps
par NUCESNetwork.headOffice.coreSwitch2.dataPort$o[2].channel ber 0
attr mutable ""
par NUCESNetwork.headOffice.coreSwitch2.dataPort$o[2].channel per 0
attr mutable ""
par NUCESNetwork.headOffice.dhcpServer.gate$o.channel typename "\"cnetfinal.Eth1G\""
par NUCESNetwork.headOffice.dhcpServer.gate$o.channel disabled false
attr mutable ""
par NUCESNetwork.headOffice.dhcpServer.gate$o.channel delay 1e-07s
attr mutable ""
attr unit s
par NUCESNetwork.headOffice.dhcpServer.gate$o.channel datarate 1e+09bps
attr mutable ""
attr unit bps
par NUCESNetwork.headOffice.dhcpServer.gate$o.channel ber 0
attr mutable ""
par NUCESNetwork.headOffice.dhcpServer.gate$o.channel per 0
attr mutable ""
par NUCESNetwork.headOffice.coreSwitch3.dataPort$o[2].channel typename "\"cnetfinal.Eth1G\""
par NUCESNetwork.headOffice.coreSwitch3.dataPort$o[2].channel disabled false
attr mutable ""
par NUCESNetwork.headOffice.coreSwitch3.dataPort$o[2].channel delay 1e-07s
attr mutable ""
attr unit s
par NUCESNetwork.headOffice.coreSwitch3.dataPort$o[2].channel datarate 1e+09bps
attr mutable ""
attr unit bps
par NUCESNetwork.headOffice.coreSwitch3.dataPort$o[2].channel ber 0
attr mutable ""
par NUCESNetwork.headOffice.coreSwitch3.dataPort$o[2].channel per 0
attr mutable ""
par NUCESNetwork.headOffice.firewallServer.gate$o.channel typename "\"cnetfinal.Eth1G\""
par NUCESNetwork.headOffice.firewallServer.gate$o.channel disabled false
attr mutable ""
par NUCESNetwork.headOffice.firewallServer.gate$o.channel delay 1e-07s
attr mutable ""
attr unit s
par NUCESNetwork.headOffice.firewallServer.gate$o.channel datarate 1e+09bps
attr mutable ""
attr unit bps
par NUCESNetwork.headOffice.firewallServer.gate$o.channel ber 0
attr mutable ""
par NUCESNetwork.headOffice.firewallServer.gate$o.channel per 0
attr mutable ""
par NUCESNetwork.headOffice.coreSwitch1.dataPort$o[3].channel typename "\"cnetfinal.Eth1G\""
par NUCESNetwork.headOffice.coreSwitch1.dataPort$o[3].channel disabled false
attr mutable ""
par NUCESNetwork.headOffice.coreSwitch1.dataPort$o[3].channel delay 1e-07s
attr mutable ""
attr unit s
par NUCESNetwork.headOffice.coreSwitch1.dataPort$o[3].channel datarate 1e+09bps
attr mutable ""
attr unit bps
par NUCESNetwork.headOffice.coreSwitch1.dataPort$o[3].channel ber 0
attr mutable ""
par NUCESNetwork.headOffice.coreSwitch1.dataPort$o[3].channel per 0
attr mutable ""
par NUCESNetwork.headOffice.edgeServer1.gate$o.channel typename "\"cnetfinal.Eth1G\""
par NUCESNetwork.headOffice.edgeServer1.gate$o.channel disabled false
attr mutable ""
par NUCESNetwork.headOffice.edgeServer1.gate$o.channel delay 1e-07s
attr mutable ""
attr unit s
par NUCESNetwork.headOffice.edgeServer1.gate$o.channel datarate 1e+09bps
attr mutable ""
attr unit bps
par NUCESNetwork.headOffice.edgeServer1.gate$o.channel ber 0
attr mutable ""
par NUCESNetwork.headOffice.edgeServer1.gate$o.channel per 0
attr mutable ""
par NUCESNetwork.headOffice.coreSwitch2.dataPort$o[3].channel typename "\"cnetfinal.Eth1G\""
par NUCESNetwork.headOffice.coreSwitch2.dataPort$o[3].channel disabled false
attr mutable ""
par NUCESNetwork.headOffice.coreSwitch2.dataPort$o[3].channel delay 1e-07s
attr mutable ""
attr unit s
par NUCESNetwork.headOffice.coreSwitch2.dataPort$o[3].channel datarate 1e+09bps
attr mutable ""
attr unit bps
par NUCESNetwork.headOffice.coreSwitch2.dataPort$o[3].channel ber 0
attr mutable ""
par NUCESNetwork.headOffice.coreSwitch2.dataPort$o[3].channel per 0
attr mutable ""
par NUCESNetwork.headOffice.edgeServer2.gate$o.channel typename "\"cnetfinal.Eth1G\""
par NUCESNetwork.headOffice.edgeServer2.gate$o.channel disabled false
attr mutable ""
par NUCESNetwork.headOffice.edgeServer2.gate$o.channel delay 1e-07s
attr mutable ""
attr unit s
par NUCESNetwork.headOffice.edgeServer2.gate$o.channel datarate 1e+09bps
attr mutable ""
attr unit bps
par NUCESNetwork.headOffice.edgeServer2.gate$o.channel ber 0
attr mutable ""
par NUCESNetwork.headOffice.edgeServer2.gate$o.channel per 0
attr mutable ""
par NUCESNetwork.headOffice.coreSwitch1 typename "\"cnetfinal.OpenFlowSwitch\""
par NUCESNetwork.headOffice.coreSwitch1 switchId "\"\""
par NUCESNetwork.headOffice.coreSwitch1 flowTableCapacity 1000
par NUCESNetwork.headOffice.coreSwitch1 isCore true
scalar NUCESNetwork.headOffice.coreSwitch1 tableMisses 0
scalar NUCESNetwork.headOffice.coreSwitch1 tableHits 0
scalar NUCESNetwork.headOffice.coreSwitch1 avgProcessingTime nan
scalar NUCESNetwork.headOffice.coreSwitch1 flowTableSize 0
scalar NUCESNetwork.headOffice.coreSwitch1 finalHitRatio 0
statistic NUCESNetwork.headOffice.coreSwitch1 packetProcessingTime:stats
field count 0
field mean nan
field stddev nan
field min nan
field max nan
field sum 0
field sqrsum 0
attr recordingmode stats
attr title "Packet processing time"
attr unit s
par NUCESNetwork.headOffice.coreSwitch2 typename "\"cnetfinal.OpenFlowSwitch\""
par NUCESNetwork.headOffice.coreSwitch2 switchId "\"\""
par NUCESNetwork.headOffice.coreSwitch2 flowTableCapacity 1000
par NUCESNetwork.headOffice.coreSwitch2 isCore true
scalar NUCESNetwork.headOffice.coreSwitch2 tableMisses 0
scalar NUCESNetwork.headOffice.coreSwitch2 tableHits 0
scalar NUCESNetwork.headOffice.coreSwitch2 avgProcessingTime nan
scalar NUCESNetwork.headOffice.coreSwitch2 flowTableSize 0
scalar NUCESNetwork.headOffice.coreSwitch2 finalHitRatio 0
statistic NUCESNetwork.headOffice.coreSwitch2 packetProcessingTime:stats
field count 0
field mean nan
field stddev nan
field min nan
field max nan
field sum 0
field sqrsum 0
attr recordingmode stats
attr title "Packet processing time"
attr unit s
par NUCESNetwork.headOffice.coreSwitch3 typename "\"cnetfinal.OpenFlowSwitch\""
par NUCESNetwork.headOffice.coreSwitch3 switchId "\"\""
par NUCESNetwork.headOffice.coreSwitch3 flowTableCapacity 1000
par NUCESNetwork.headOffice.coreSwitch3 isCore true
scalar NUCESNetwork.headOffice.coreSwitch3 tableMisses 0
scalar NUCESNetwork.headOffice.coreSwitch3 tableHits 0
scalar NUCESNetwork.headOffice.coreSwitch3 avgProcessingTime nan
scalar NUCESNetwork.headOffice.coreSwitch3 flowTableSize 0
scalar NUCESNetwork.headOffice.coreSwitch3 finalHitRatio 0
statistic NUCESNetwork.headOffice.coreSwitch3 packetProcessingTime:stats
field count 0
field mean nan
field stddev nan
field min nan
field max nan
field sum 0
field sqrsum 0
attr recordingmode stats
attr title "Packet processing time"
attr unit s
par NUCESNetwork.headOffice.dnsServer typename "\"cnetfinal.Host\""
par NUCESNetwork.headOffice.dnsServer macAddress "\"\""
par NUCESNetwork.headOffice.dnsServer networkAddress "\"\""
par NUCESNetwork.headOffice.dnsServer isFirewallModule false
scalar NUCESNetwork.headOffice.dnsServer isFirewall 0
par NUCESNetwork.headOffice.dhcpServer typename "\"cnetfinal.Host\""
par NUCESNetwork.headOffice.dhcpServer macAddress "\"\""
par NUCESNetwork.headOffice.dhcpServer networkAddress "\"\""
par NUCESNetwork.headOffice.dhcpServer isFirewallModule false
scalar NUCESNetwork.headOffice.dhcpServer isFirewall 0
par NUCESNetwork.headOffice.firewallServer typename "\"cnetfinal.Host\""
par NUCESNetwork.headOffice.firewallServer macAddress "\"\""
par NUCESNetwork.headOffice.firewallServer networkAddress "\"\""
par NUCESNetwork.headOffice.firewallServer isFirewallModule true
scalar NUCESNetwork.headOffice.firewallServer isFirewall 1
par NUCESNetwork.headOffice.edgeServer1 typename "\"cnetfinal.Host\""
par NUCESNetwork.headOffice.edgeServer1 macAddress "\"\""
par NUCESNetwork.headOffice.edgeServer1 networkAddress "\"\""
par NUCESNetwork.headOffice.edgeServer1 isFirewallModule false
scalar NUCESNetwork.headOffice.edgeServer1 isFirewall 0
par NUCESNetwork.headOffice.edgeServer2 typename "\"cnetfinal.Host\""
par NUCESNetwork.headOffice.edgeServer2 macAddress "\"\""
par NUCESNetwork.headOffice.edgeServer2 networkAddress "\"\""
par NUCESNetwork.headOffice.edgeServer2 isFirewallModule false
scalar NUCESNetwork.headOffice.edgeServer2 isFirewall 0
par NUCESNetwork.headOffice.controllerSwitch typename "\"cnetfinal.OpenFlowSwitch\""
par NUCESNetwork.headOffice.controllerSwitch switchId "\"\""
par NUCESNetwork.headOffice.controllerSwitch flowTableCapacity 100
par NUCESNetwork.headOffice.controllerSwitch isCore true
scalar NUCESNetwork.headOffice.controllerSwitch tableMisses 0
scalar NUCESNetwork.headOffice.controllerSwitch tableHits 0
scalar NUCESNetwork.headOffice.controllerSwitch avgProcessingTime nan
scalar NUCESNetwork.headOffice.controllerSwitch flowTableSize 0
scalar NUCESNetwork.headOffice.controllerSwitch finalHitRatio 0
statistic NUCESNetwork.headOffice.controllerSwitch packetProcessingTime:stats
field count 0
field mean nan
field stddev nan
field min nan
field max nan
field sum 0
field sqrsum 0
attr recordingmode stats
attr title "Packet processing time"
attr unit s
par NUCESNetwork.headOffice typename "\"cnetfinal.HeadOffice\""
par NUCESNetwork.islamabadCampus.localController.gate$o[0].channel typename "\"cnetfinal.Eth1G\""
par NUCESNetwork.islamabadCampus.localController.gate$o[0].channel disabled false
attr mutable ""
par NUCESNetwork.islamabadCampus.localController.gate$o[0].channel delay 1e-07s
attr mutable ""
attr unit s
par NUCESNetwork.islamabadCampus.localController.gate$o[0].channel datarate 1e+09bps
attr mutable ""
attr unit bps
par NUCESNetwork.islamabadCampus.localController.gate$o[0].channel ber 0
attr mutable ""
par NUCESNetwork.islamabadCampus.localController.gate$o[0].channel per 0
attr mutable ""
par NUCESNetwork.islamabadCampus.coreSwitch1.controllerOut.channel typename "\"cnetfinal.Eth1G\""
par NUCESNetwork.islamabadCampus.coreSwitch1.controllerOut.channel disabled false
attr mutable ""
par NUCESNetwork.islamabadCampus.coreSwitch1.controllerOut.channel delay 1e-07s
attr mutable ""
attr unit s
par NUCESNetwork.islamabadCampus.coreSwitch1.controllerOut.channel datarate 1e+09bps
attr mutable ""
attr unit bps
par NUCESNetwork.islamabadCampus.coreSwitch1.controllerOut.channel ber 0
attr mutable ""
par NUCESNetwork.islamabadCampus.coreSwitch1.controllerOut.channel per 0
attr mutable ""
par NUCESNetwork.islamabadCampus.localController.gate$o[1].channel typename "\"cnetfinal.Eth1G\""
par NUCESNetwork.islamabadCampus.localController.gate$o[1].channel disabled false
attr mutable ""
par NUCESNetwork.islamabadCampus.localController.gate$o[1].channel delay 1e-07s
attr mutable ""
attr unit s
par NUCESNetwork.islamabadCampus.localController.gate$o[1].channel datarate 1e+09bps
attr mutable ""
attr unit bps
par NUCESNetwork.islamabadCampus.localController.gate$o[1].channel ber 0
attr mutable ""
par NUCESNetwork.islamabadCampus.localController.gate$o[1].channel per 0
attr mutable ""
par NUCESNetwork.islamabadCampus.coreSwitch2.controllerOut.channel typename "\"cnetfinal.Eth1G\""
par NUCESNetwork.islamabadCampus.coreSwitch2.controllerOut.channel disabled false
attr mutable ""
par NUCESNetwork.islamabadCampus.coreSwitch2.controllerOut.channel delay 1e-07s
attr mutable ""
attr unit s
par NUCESNetwork.islamabadCampus.coreSwitch2.controllerOut.channel datarate 1e+09bps
attr mutable ""
attr unit bps
par NUCESNetwork.islamabadCampus.coreSwitch2.controllerOut.channel ber 0
attr mutable ""
par NUCESNetwork.islamabadCampus.coreSwitch2.controllerOut.channel per 0
attr mutable ""
par NUCESNetwork.islamabadCampus.localController.gate$o[2].channel typename "\"cnetfinal.Eth1G\""
par NUCESNetwork.islamabadCampus.localController.gate$o[2].channel disabled false
attr mutable ""
par NUCESNetwork.islamabadCampus.localController.gate$o[2].channel delay 1e-07s
attr mutable ""
attr unit s
par NUCESNetwork.islamabadCampus.localController.gate$o[2].channel datarate 1e+09bps
attr mutable ""
attr unit bps
par NUCESNetwork.islamabadCampus.localController.gate$o[2].channel ber 0
attr mutable ""
par NUCESNetwork.islamabadCampus.localController.gate$o[2].channel per 0
attr mutable ""
par NUCESNetwork.islamabadCampus.coreSwitch3.controllerOut.channel typename "\"cnetfinal.Eth1G\""
par NUCESNetwork.islamabadCampus.coreSwitch3.controllerOut.channel disabled false
attr mutable ""
par NUCESNetwork.islamabadCampus.coreSwitch3.controllerOut.channel delay 1e-07s
attr mutable ""
attr unit s
par NUCESNetwork.islamabadCampus.coreSwitch3.controllerOut.channel datarate 1e+09bps
attr mutable ""
attr unit bps
par NUCESNetwork.islamabadCampus.coreSwitch3.controllerOut.channel ber 0
attr mutable ""
par NUCESNetwork.islamabadCampus.coreSwitch3.controllerOut.channel per 0
attr mutable ""
par NUCESNetwork.islamabadCampus.coreSwitch1.dataPort$o[0].channel typename "\"cnetfinal.Eth1G\""
par NUCESNetwork.islamabadCampus.coreSwitch1.dataPort$o[0].channel disabled false
attr mutable ""
par NUCESNetwork.islamabadCampus.coreSwitch1.dataPort$o[0].channel delay 1e-07s
attr mutable ""
attr unit s
par NUCESNetwork.islamabadCampus.coreSwitch1.dataPort$o[0].channel datarate 1e+09bps
attr mutable ""
attr unit bps
par NUCESNetwork.islamabadCampus.coreSwitch1.dataPort$o[0].channel ber 0
attr mutable ""
par NUCESNetwork.islamabadCampus.coreSwitch1.dataPort$o[0].channel per 0
attr mutable ""
par NUCESNetwork.islamabadCampus.coreSwitch2.dataPort$o[0].channel typename "\"cnetfinal.Eth1G\""
par NUCESNetwork.islamabadCampus.coreSwitch2.dataPort$o[0].channel disabled false
attr mutable ""
par NUCESNetwork.islamabadCampus.coreSwitch2.dataPort$o[0].channel delay 1e-07s
attr mutable ""
attr unit s
par NUCESNetwork.islamabadCampus.coreSwitch2.dataPort$o[0].channel datarate 1e+09bps
attr mutable ""
attr unit bps
par NUCESNetwork.islamabadCampus.coreSwitch2.dataPort$o[0].channel ber 0
attr mutable ""
par NUCESNetwork.islamabadCampus.coreSwitch2.dataPort$o[0].channel per 0
attr mutable ""
par NUCESNetwork.islamabadCampus.coreSwitch2.dataPort$o[1].channel typename "\"cnetfinal.Eth1G\""
par NUCESNetwork.islamabadCampus.coreSwitch2.dataPort$o[1].channel disabled false
attr mutable ""
par NUCESNetwork.islamabadCampus.coreSwitch2.dataPort$o[1].channel delay 1e-07s
attr mutable ""
attr unit s
par NUCESNetwork.islamabadCampus.coreSwitch2.dataPort$o[1].channel datarate 1e+09bps
attr mutable ""
attr unit bps
par NUCESNetwork.islamabadCampus.coreSwitch2.dataPort$o[1].channel ber 0
attr mutable ""
par NUCESNetwork.islamabadCampus.coreSwitch2.dataPort$o[1].channel per 0
attr mutable ""
par NUCESNetwork.islamabadCampus.coreSwitch3.dataPort$o[0].channel typename "\"cnetfinal.Eth1G\""
par NUCESNetwork.islamabadCampus.coreSwitch3.dataPort$o[0].channel disabled false
attr mutable ""
par NUCESNetwork.islamabadCampus.coreSwitch3.dataPort$o[0].channel delay 1e-07s
attr mutable ""
attr unit s
par NUCESNetwork.islamabadCampus.coreSwitch3.dataPort$o[0].channel datarate 1e+09bps
attr mutable ""
attr unit bps
par NUCESNetwork.islamabadCampus.coreSwitch3.dataPort$o[0].channel ber 0
attr mutable ""
par NUCESNetwork.islamabadCampus.coreSwitch3.dataPort$o[0].channel per 0
attr mutable ""
par NUCESNetwork.islamabadCampus.coreSwitch3.dataPort$o[1].channel typename "\"cnetfinal.Eth1G\""
par NUCESNetwork.islamabadCampus.coreSwitch3.dataPort$o[1].channel disabled false
attr mutable ""
par NUCESNetwork.islamabadCampus.coreSwitch3.dataPort$o[1].channel delay 1e-07s
attr mutable ""
attr unit s
par NUCESNetwork.islamabadCampus.coreSwitch3.dataPort$o[1].channel datarate 1e+09bps
attr mutable ""
attr unit bps
par NUCESNetwork.islamabadCampus.coreSwitch3.dataPort$o[1].channel ber 0
attr mutable ""
par NUCESNetwork.islamabadCampus.coreSwitch3.dataPort$o[1].channel per 0
attr mutable ""
par NUCESNetwork.islamabadCampus.coreSwitch1.dataPort$o[1].channel typename "\"cnetfinal.Eth1G\""
par NUCESNetwork.islamabadCampus.coreSwitch1.dataPort$o[1].channel disabled false
attr mutable ""
par NUCESNetwork.islamabadCampus.coreSwitch1.dataPort$o[1].channel delay 1e-07s
attr mutable ""
attr unit s
par NUCESNetwork.islamabadCampus.coreSwitch1.dataPort$o[1].channel datarate 1e+09bps
attr mutable ""
attr unit bps
par NUCESNetwork.islamabadCampus.coreSwitch1.dataPort$o[1].channel ber 0
attr mutable ""
par NUCESNetwork.islamabadCampus.coreSwitch1.dataPort$o[1].channel per 0
attr mutable ""
par NUCESNetwork.islamabadCampus.coreSwitch1.dataPort$o[2].channel typename "\"cnetfinal.Eth1G\""
par NUCESNetwork.islamabadCampus.coreSwitch1.dataPort$o[2].channel disabled false
attr mutable ""
par NUCESNetwork.islamabadCampus.coreSwitch1.dataPort$o[2].channel delay 1e-07s
attr mutable ""
attr unit s
par NUCESNetwork.islamabadCampus.coreSwitch1.dataPort$o[2].channel datarate 1e+09bps
attr mutable ""
attr unit bps
par NUCESNetwork.islamabadCampus.coreSwitch1.dataPort$o[2].channel ber 0
attr mutable ""
par NUCESNetwork.islamabadCampus.coreSwitch1.dataPort$o[2].channel per 0
attr mutable ""
par NUCESNetwork.islamabadCampus.lab[0].uplink$o.channel typename "\"cnetfinal.Eth1G\""
par NUCESNetwork.islamabadCampus.lab[0].uplink$o.channel disabled false
attr mutable ""
par NUCESNetwork.islamabadCampus.lab[0].uplink$o.channel delay 1e-07s
attr mutable ""
attr unit s
par NUCESNetwork.islamabadCampus.lab[0].uplink$o.channel datarate 1e+09bps
attr mutable ""
attr unit bps
par NUCESNetwork.islamabadCampus.lab[0].uplink$o.channel ber 0
attr mutable ""
par NUCESNetwork.islamabadCampus.lab[0].uplink$o.channel per 0
attr mutable ""
par NUCESNetwork.islamabadCampus.lab[0].controllerGate$o.channel typename "\"cnetfinal.Eth1G\""
par NUCESNetwork.islamabadCampus.lab[0].controllerGate$o.channel disabled false
attr mutable ""
par NUCESNetwork.islamabadCampus.lab[0].controllerGate$o.channel delay 1e-07s
attr mutable ""
attr unit s
par NUCESNetwork.islamabadCampus.lab[0].controllerGate$o.channel datarate 1e+09bps
attr mutable ""
attr unit bps
par NUCESNetwork.islamabadCampus.lab[0].controllerGate$o.channel ber 0
attr mutable ""
par NUCESNetwork.islamabadCampus.lab[0].controllerGate$o.channel per 0
attr mutable ""
par NUCESNetwork.islamabadCampus.coreSwitch2.dataPort$o[2].channel typename "\"cnetfinal.Eth1G\""
par NUCESNetwork.islamabadCampus.coreSwitch2.dataPort$o[2].channel disabled false
attr mutable ""
par NUCESNetwork.islamabadCampus.coreSwitch2.dataPort$o[2].channel delay 1e-07s
attr mutable ""
attr unit s
par NUCESNetwork.islamabadCampus.coreSwitch2.dataPort$o[2].channel datarate 1e+09bps
attr mutable ""
attr unit bps
par NUCESNetwork.islamabadCampus.coreSwitch2.dataPort$o[2].channel ber 0
attr mutable ""
par NUCESNetwork.islamabadCampus.coreSwitch2.dataPort$o[2].channel per 0
attr mutable ""
par NUCESNetwork.islamabadCampus.lab[1].uplink$o.channel typename "\"cnetfinal.Eth1G\""
par NUCESNetwork.islamabadCampus.lab[1].uplink$o.channel disabled false
attr mutable ""
par NUCESNetwork.islamabadCampus.lab[1].uplink$o.channel delay 1e-07s
attr mutable ""
attr unit s
par NUCESNetwork.islamabadCampus.lab[1].uplink$o.channel datarate 1e+09bps
attr mutable ""
attr unit bps
par NUCESNetwork.islamabadCampus.lab[1].uplink$o.channel ber 0
attr mutable ""
par NUCESNetwork.islamabadCampus.lab[1].uplink$o.channel per 0
attr mutable ""
par NUCESNetwork.islamabadCampus.lab[1].controllerGate$o.channel typename "\"cnetfinal.Eth1G\""
par NUCESNetwork.islamabadCampus.lab[1].controllerGate$o.channel disabled false
attr mutable ""
par NUCESNetwork.islamabadCampus.lab[1].controllerGate$o.channel delay 1e-07s
attr mutable ""
attr unit s
par NUCESNetwork.islamabadCampus.lab[1].controllerGate$o.channel datarate 1e+09bps
attr mutable ""
attr unit bps
par NUCESNetwork.islamabadCampus.lab[1].controllerGate$o.channel ber 0
attr mutable ""
par NUCESNetwork.islamabadCampus.lab[1].controllerGate$o.channel per 0
attr mutable ""
par NUCESNetwork.islamabadCampus.coreSwitch1.dataPort$o[3].channel typename "\"cnetfinal.Eth1G\""
par NUCESNetwork.islamabadCampus.coreSwitch1.dataPort$o[3].channel disabled false
attr mutable ""
par NUCESNetwork.islamabadCampus.coreSwitch1.dataPort$o[3].channel delay 1e-07s
attr mutable ""
attr unit s
par NUCESNetwork.islamabadCampus.coreSwitch1.dataPort$o[3].channel datarate 1e+09bps
attr mutable ""
attr unit bps
par NUCESNetwork.islamabadCampus.coreSwitch1.dataPort$o[3].channel ber 0
attr mutable ""
par NUCESNetwork.islamabadCampus.coreSwitch1.dataPort$o[3].channel per 0
attr mutable ""
par NUCESNetwork.islamabadCampus.edgeServer.gate$o.channel typename "\"cnetfinal.Eth1G\""
par NUCESNetwork.islamabadCampus.edgeServer.gate$o.channel disabled false
attr mutable ""
par NUCESNetwork.islamabadCampus.edgeServer.gate$o.channel delay 1e-07s
attr mutable ""
attr unit s
par NUCESNetwork.islamabadCampus.edgeServer.gate$o.channel datarate 1e+09bps
attr mutable ""
attr unit bps
par NUCESNetwork.islamabadCampus.edgeServer.gate$o.channel ber 0
attr mutable ""
par NUCESNetwork.islamabadCampus.edgeServer.gate$o.channel per 0
attr mutable ""
par NUCESNetwork.islamabadCampus.localController typename "\"cnetfinal.LocalController\""
par NUCESNetwork.islamabadCampus.localController controllerType "\"local\""
par NUCESNetwork.islamabadCampus.localController flowTableSize 5000
par NUCESNetwork.islamabadCampus.localController processingDelay 0.001s
attr unit s
par NUCESNetwork.islamabadCampus.localController campusName "\"\""
par NUCESNetwork.islamabadCampus.localController updateInterval 5s
attr unit s
scalar NUCESNetwork.islamabadCampus.localController avgFlowSetupTime nan
scalar NUCESNetwork.islamabadCampus.localController maxFlowSetupTime nan
scalar NUCESNetwork.islamabadCampus.localController totalFlowRequests 0
statistic NUCESNetwork.islamabadCampus.localController flowSetupTime:stats
field count 0
field mean nan
field stddev nan
field min nan
field max nan
field sum 0
field sqrsum 0
attr recordingmode stats
attr title "Flow setup time"
attr unit s
par NUCESNetwork.islamabadCampus.coreSwitch1 typename "\"cnetfinal.OpenFlowSwitch\""
par NUCESNetwork.islamabadCampus.coreSwitch1 switchId "\"\""
par NUCESNetwork.islamabadCampus.coreSwitch1 flowTableCapacity 1000
par NUCESNetwork.islamabadCampus.coreSwitch1 isCore true
scalar NUCESNetwork.islamabadCampus.coreSwitch1 tableMisses 0
scalar NUCESNetwork.islamabadCampus.coreSwitch1 tableHits 0
scalar NUCESNetwork.islamabadCampus.coreSwitch1 avgProcessingTime nan
scalar NUCESNetwork.islamabadCampus.coreSwitch1 flowTableSize 0
scalar NUCESNetwork.islamabadCampus.coreSwitch1 finalHitRatio 0
statistic NUCESNetwork.islamabadCampus.coreSwitch1 packetProcessingTime:stats
field count 0
field mean nan
field stddev nan
field min nan
field max nan
field sum 0
field sqrsum 0
attr recordingmode stats
attr title "Packet processing time"
attr unit s
par NUCESNetwork.islamabadCampus.coreSwitch2 typename "\"cnetfinal.OpenFlowSwitch\""
par NUCESNetwork.islamabadCampus.coreSwitch2 switchId "\"\""
par NUCESNetwork.islamabadCampus.coreSwitch2 flowTableCapacity 1000
par NUCESNetwork.islamabadCampus.coreSwitch2 isCore true
scalar NUCESNetwork.islamabadCampus.coreSwitch2 tableMisses 0
scalar NUCESNetwork.islamabadCampus.coreSwitch2 tableHits 0
scalar NUCESNetwork.islamabadCampus.coreSwitch2 avgProcessingTime nan
scalar NUCESNetwork.islamabadCampus.coreSwitch2 flowTableSize 0
scalar NUCESNetwork.islamabadCampus.coreSwitch2 finalHitRatio 0
statistic NUCESNetwork.islamabadCampus.coreSwitch2 packetProcessingTime:stats
field count 0
field mean nan
field stddev nan
field min nan
field max nan
field sum 0
field sqrsum 0
attr recordingmode stats
attr title "Packet processing time"
attr unit s
par NUCESNetwork.islamabadCampus.coreSwitch3 typename "\"cnetfinal.OpenFlowSwitch\""
par NUCESNetwork.islamabadCampus.coreSwitch3 switchId "\"\""
par NUCESNetwork.islamabadCampus.coreSwitch3 flowTableCapacity 1000
par NUCESNetwork.islamabadCampus.coreSwitch3 isCore true
scalar NUCESNetwork.islamabadCampus.coreSwitch3 tableMisses 0
scalar NUCESNetwork.islamabadCampus.coreSwitch3 tableHits 0
scalar NUCESNetwork.islamabadCampus.coreSwitch3 avgProcessingTime nan
scalar NUCESNetwork.islamabadCampus.coreSwitch3 flowTableSize 0
scalar NUCESNetwork.islamabadCampus.coreSwitch3 finalHitRatio 0
statistic NUCESNetwork.islamabadCampus.coreSwitch3 packetProcessingTime:stats
field count 0
field mean nan
field stddev nan
field min nan
field max nan
field sum 0
field sqrsum 0
attr recordingmode stats
attr title "Packet processing time"
attr unit s
par NUCESNetwork.islamabadCampus.lab[0].system[0].gate$o.channel typename "\"cnetfinal.Eth100M\""
par NUCESNetwork.islamabadCampus.lab[0].system[0].gate$o.channel disabled false
attr mutable ""
par NUCESNetwork.islamabadCampus.lab[0].system[0].gate$o.channel delay 1e-07s
attr mutable ""
attr unit s
par NUCESNetwork.islamabadCampus.lab[0].system[0].gate$o.channel datarate 1e+08bps
attr mutable ""
attr unit bps
par NUCESNetwork.islamabadCampus.lab[0].system[0].gate$o.channel ber 0
attr mutable ""
par NUCESNetwork.islamabadCampus.lab[0].system[0].gate$o.channel per 0
attr mutable ""
par NUCESNetwork.islamabadCampus.lab[0].labSwitch.dataPort$o[0].channel typename "\"cnetfinal.Eth100M\""
par NUCESNetwork.islamabadCampus.lab[0].labSwitch.dataPort$o[0].channel disabled false
attr mutable ""
par NUCESNetwork.islamabadCampus.lab[0].labSwitch.dataPort$o[0].channel delay 1e-07s
attr mutable ""
attr unit s
par NUCESNetwork.islamabadCampus.lab[0].labSwitch.dataPort$o[0].channel datarate 1e+08bps
attr mutable ""
attr unit bps
par NUCESNetwork.islamabadCampus.lab[0].labSwitch.dataPort$o[0].channel ber 0
attr mutable ""
par NUCESNetwork.islamabadCampus.lab[0].labSwitch.dataPort$o[0].channel per 0
attr mutable ""
par NUCESNetwork.islamabadCampus.lab[0].system[1].gate$o.channel typename "\"cnetfinal.Eth100M\""
par NUCESNetwork.islamabadCampus.lab[0].system[1].gate$o.channel disabled false
attr mutable ""
par NUCESNetwork.islamabadCampus.lab[0].system[1].gate$o.channel delay 1e-07s
attr mutable ""
attr unit s
par NUCESNetwork.islamabadCampus.lab[0].system[1].gate$o.channel datarate 1e+08bps
attr mutable ""
attr unit bps
par NUCESNetwork.islamabadCampus.lab[0].system[1].gate$o.channel ber 0
attr mutable ""
par NUCESNetwork.islamabadCampus.lab[0].system[1].gate$o.channel per 0
attr mutable ""
par NUCESNetwork.islamabadCampus.lab[0].labSwitch.dataPort$o[1].channel typename "\"cnetfinal.Eth100M\""
par NUCESNetwork.islamabadCampus.lab[0].labSwitch.dataPort$o[1].channel disabled false
attr mutable ""
par NUCESNetwork.islamabadCampus.lab[0].labSwitch.dataPort$o[1].channel delay 1e-07s
attr mutable ""
attr unit s
par NUCESNetwork.islamabadCampus.lab[0].labSwitch.dataPort$o[1].channel datarate 1e+08bps
attr mutable ""
attr unit bps
par NUCESNetwork.islamabadCampus.lab[0].labSwitch.dataPort$o[1].channel ber 0
attr mutable ""
par NUCESNetwork.islamabadCampus.lab[0].labSwitch.dataPort$o[1].channel per 0
attr mutable ""
par NUCESNetwork.islamabadCampus.lab[0].system[2].gate$o.channel typename "\"cnetfinal.Eth100M\""
par NUCESNetwork.islamabadCampus.lab[0].system[2].gate$o.channel disabled false
attr mutable ""
par NUCESNetwork.islamabadCampus.lab[0].system[2].gate$o.channel delay 1e-07s
attr mutable ""
attr unit s
par NUCESNetwork.islamabadCampus.lab[0].system[2].gate$o.channel datarate 1e+08bps
attr mutable ""
attr unit bps
par NUCESNetwork.islamabadCampus.lab[0].system[2].gate$o.channel ber 0
attr mutable ""
par NUCESNetwork.islamabadCampus.lab[0].system[2].gate$o.channel per 0
attr mutable ""
par NUCESNetwork.islamabadCampus.lab[0].labSwitch.dataPort$o[2].channel typename "\"cnetfinal.Eth100M\""
par NUCESNetwork.islamabadCampus.lab[0].labSwitch.dataPort$o[2].channel disabled false
attr mutable ""
par NUCESNetwork.islamabadCampus.lab[0].labSwitch.dataPort$o[2].channel delay 1e-07s
attr mutable ""
attr unit s
par NUCESNetwork.islamabadCampus.lab[0].labSwitch.dataPort$o[2].channel datarate 1e+08bps
attr mutable ""
attr unit bps
par NUCESNetwork.islamabadCampus.lab[0].labSwitch.dataPort$o[2].channel ber 0
attr mutable ""
par NUCESNetwork.islamabadCampus.lab[0].labSwitch.dataPort$o[2].channel per 0
attr mutable ""
par NUCESNetwork.islamabadCampus.lab[0].system[3].gate$o.channel typename "\"cnetfinal.Eth100M\""
par NUCESNetwork.islamabadCampus.lab[0].system[3].gate$o.channel disabled false
attr mutable ""
par NUCESNetwork.islamabadCampus.lab[0].system[3].gate$o.channel delay 1e-07s
attr mutable ""
attr unit s
par NUCESNetwork.islamabadCampus.lab[0].system[3].gate$o.channel datarate 1e+08bps
attr mutable ""
attr unit bps
par NUCESNetwork.islamabadCampus.lab[0].system[3].gate$o.channel ber 0
attr mutable ""
par NUCESNetwork.islamabadCampus.lab[0].system[3].gate$o.channel per 0
attr mutable ""
par NUCESNetwork.islamabadCampus.lab[0].labSwitch.dataPort$o[3].channel typename "\"cnetfinal.Eth100M\""
par NUCESNetwork.islamabadCampus.lab[0].labSwitch.dataPort$o[3].channel disabled false
attr mutable ""
par NUCESNetwork.islamabadCampus.lab[0].labSwitch.dataPort$o[3].channel delay 1e-07s
attr mutable ""
attr unit s
par NUCESNetwork.islamabadCampus.lab[0].labSwitch.dataPort$o[3].channel datarate 1e+08bps
attr mutable ""
attr unit bps
par NUCESNetwork.islamabadCampus.lab[0].labSwitch.dataPort$o[3].channel ber 0
attr mutable ""
par NUCESNetwork.islamabadCampus.lab[0].labSwitch.dataPort$o[3].channel per 0
attr mutable ""
par NUCESNetwork.islamabadCampus.lab[0].system[4].gate$o.channel typename "\"cnetfinal.Eth100M\""
par NUCESNetwork.islamabadCampus.lab[0].system[4].gate$o.channel disabled false
attr mutable ""
par NUCESNetwork.islamabadCampus.lab[0].system[4].gate$o.channel delay 1e-07s
attr mutable ""
attr unit s
par NUCESNetwork.islamabadCampus.lab[0].system[4].gate$o.channel datarate 1e+08bps
attr mutable ""
attr unit bps
par NUCESNetwork.islamabadCampus.lab[0].system[4].gate$o.channel ber 0
attr mutable ""
par NUCESNetwork.islamabadCampus.lab[0].system[4].gate$o.channel per 0
attr mutable ""
par NUCESNetwork.islamabadCampus.lab[0].labSwitch.dataPort$o[4].channel typename "\"cnetfinal.Eth100M\""
par NUCESNetwork.islamabadCampus.lab[0].labSwitch.dataPort$o[4].channel disabled false
attr mutable ""
par NUCESNetwork.islamabadCampus.lab[0].labSwitch.dataPort$o[4].channel delay 1e-07s
attr mutable ""
attr unit s
par NUCESNetwork.islamabadCampus.lab[0].labSwitch.dataPort$o[4].channel datarate 1e+08bps
attr mutable ""
attr unit bps
par NUCESNetwork.islamabadCampus.lab[0].labSwitch.dataPort$o[4].channel ber 0
attr mutable ""
par NUCESNetwork.islamabadCampus.lab[0].labSwitch.dataPort$o[4].channel per 0
attr mutable ""
par NUCESNetwork.islamabadCampus.lab[0].labSwitch typename "\"cnetfinal.OpenFlowSwitch\""
par NUCESNetwork.islamabadCampus.lab[0].labSwitch switchId "\"\""
par NUCESNetwork.islamabadCampus.lab[0].labSwitch flowTableCapacity 100
par NUCESNetwork.islamabadCampus.lab[0].labSwitch isCore false
scalar NUCESNetwork.islamabadCampus.lab[0].labSwitch tableMisses 0
scalar NUCESNetwork.islamabadCampus.lab[0].labSwitch tableHits 0
scalar NUCESNetwork.islamabadCampus.lab[0].labSwitch avgProcessingTime nan
scalar NUCESNetwork.islamabadCampus.lab[0].labSwitch flowTableSize 0
scalar NUCESNetwork.islamabadCampus.lab[0].labSwitch finalHitRatio 0
statistic NUCESNetwork.islamabadCampus.lab[0].labSwitch packetProcessingTime:stats
field count 0
field mean nan
field stddev nan
field min nan
field max nan
field sum 0
field sqrsum 0
attr recordingmode stats
attr title "Packet processing time"
attr unit s
par NUCESNetwork.islamabadCampus.lab[0].system[0] typename "\"cnetfinal.Host\""
par NUCESNetwork.islamabadCampus.lab[0].system[0] macAddress "\"\""
par NUCESNetwork.islamabadCampus.lab[0].system[0] networkAddress "\"\""
par NUCESNetwork.islamabadCampus.lab[0].system[0] isFirewallModule false
scalar NUCESNetwork.islamabadCampus.lab[0].system[0] isFirewall 0
par NUCESNetwork.islamabadCampus.lab[0].system[1] typename "\"cnetfinal.Host\""
par NUCESNetwork.islamabadCampus.lab[0].system[1] macAddress "\"\""
par NUCESNetwork.islamabadCampus.lab[0].system[1] networkAddress "\"\""
par NUCESNetwork.islamabadCampus.lab[0].system[1] isFirewallModule false
scalar NUCESNetwork.islamabadCampus.lab[0].system[1] isFirewall 0
par NUCESNetwork.islamabadCampus.lab[0].system[2] typename "\"cnetfinal.Host\""
par NUCESNetwork.islamabadCampus.lab[0].system[2] macAddress "\"\""
par NUCESNetwork.islamabadCampus.lab[0].system[2] networkAddress "\"\""
par NUCESNetwork.islamabadCampus.lab[0].system[2] isFirewallModule false
scalar NUCESNetwork.islamabadCampus.lab[0].system[2] isFirewall 0
par NUCESNetwork.islamabadCampus.lab[0].system[3] typename "\"cnetfinal.Host\""
par NUCESNetwork.islamabadCampus.lab[0].system[3] macAddress "\"\""
par NUCESNetwork.islamabadCampus.lab[0].system[3] networkAddress "\"\""
par NUCESNetwork.islamabadCampus.lab[0].system[3] isFirewallModule false
scalar NUCESNetwork.islamabadCampus.lab[0].system[3] isFirewall 0
par NUCESNetwork.islamabadCampus.lab[0].system[4] typename "\"cnetfinal.Host\""
par NUCESNetwork.islamabadCampus.lab[0].system[4] macAddress "\"\""
par NUCESNetwork.islamabadCampus.lab[0].system[4] networkAddress "\"\""
par NUCESNetwork.islamabadCampus.lab[0].system[4] isFirewallModule false
scalar NUCESNetwork.islamabadCampus.lab[0].system[4] isFirewall 0
par NUCESNetwork.islamabadCampus.lab[0] typename "\"cnetfinal.LabNetwork\""
par NUCESNetwork.islamabadCampus.lab[0] numSystems 5
par NUCESNetwork.islamabadCampus.lab[1].system[0].gate$o.channel typename "\"cnetfinal.Eth100M\""
par NUCESNetwork.islamabadCampus.lab[1].system[0].gate$o.channel disabled false
attr mutable ""
par NUCESNetwork.islamabadCampus.lab[1].system[0].gate$o.channel delay 1e-07s
attr mutable ""
attr unit s
par NUCESNetwork.islamabadCampus.lab[1].system[0].gate$o.channel datarate 1e+08bps
attr mutable ""
attr unit bps
par NUCESNetwork.islamabadCampus.lab[1].system[0].gate$o.channel ber 0
attr mutable ""
par NUCESNetwork.islamabadCampus.lab[1].system[0].gate$o.channel per 0
attr mutable ""
par NUCESNetwork.islamabadCampus.lab[1].labSwitch.dataPort$o[0].channel typename "\"cnetfinal.Eth100M\""
par NUCESNetwork.islamabadCampus.lab[1].labSwitch.dataPort$o[0].channel disabled false
attr mutable ""
par NUCESNetwork.islamabadCampus.lab[1].labSwitch.dataPort$o[0].channel delay 1e-07s
attr mutable ""
attr unit s
par NUCESNetwork.islamabadCampus.lab[1].labSwitch.dataPort$o[0].channel datarate 1e+08bps
attr mutable ""
attr unit bps
par NUCESNetwork.islamabadCampus.lab[1].labSwitch.dataPort$o[0].channel ber 0
attr mutable ""
par NUCESNetwork.islamabadCampus.lab[1].labSwitch.dataPort$o[0].channel per 0
attr mutable ""
par NUCESNetwork.islamabadCampus.lab[1].system[1].gate$o.channel typename "\"cnetfinal.Eth100M\""
par NUCESNetwork.islamabadCampus.lab[1].system[1].gate$o.channel disabled false
attr mutable ""
par NUCESNetwork.islamabadCampus.lab[1].system[1].gate$o.channel delay 1e-07s
attr mutable ""
attr unit s
par NUCESNetwork.islamabadCampus.lab[1].system[1].gate$o.channel datarate 1e+08bps
attr mutable ""
attr unit bps
par NUCESNetwork.islamabadCampus.lab[1].system[1].gate$o.channel ber 0
attr mutable ""
par NUCESNetwork.islamabadCampus.lab[1].system[1].gate$o.channel per 0
attr mutable ""
par NUCESNetwork.islamabadCampus.lab[1].labSwitch.dataPort$o[1].channel typename "\"cnetfinal.Eth100M\""
par NUCESNetwork.islamabadCampus.lab[1].labSwitch.dataPort$o[1].channel disabled false
attr mutable ""
par NUCESNetwork.islamabadCampus.lab[1].labSwitch.dataPort$o[1].channel delay 1e-07s
attr mutable ""
attr unit s
par NUCESNetwork.islamabadCampus.lab[1].labSwitch.dataPort$o[1].channel datarate 1e+08bps
attr mutable ""
attr unit bps
par NUCESNetwork.islamabadCampus.lab[1].labSwitch.dataPort$o[1].channel ber 0
attr mutable ""
par NUCESNetwork.islamabadCampus.lab[1].labSwitch.dataPort$o[1].channel per 0
attr mutable ""
par NUCESNetwork.islamabadCampus.lab[1].system[2].gate$o.channel typename "\"cnetfinal.Eth100M\""
par NUCESNetwork.islamabadCampus.lab[1].system[2].gate$o.channel disabled false
attr mutable ""
par NUCESNetwork.islamabadCampus.lab[1].system[2].gate$o.channel delay 1e-07s
attr mutable ""
attr unit s
par NUCESNetwork.islamabadCampus.lab[1].system[2].gate$o.channel datarate 1e+08bps
attr mutable ""
attr unit bps
par NUCESNetwork.islamabadCampus.lab[1].system[2].gate$o.channel ber 0
attr mutable ""
par NUCESNetwork.islamabadCampus.lab[1].system[2].gate$o.channel per 0
attr mutable ""
par NUCESNetwork.islamabadCampus.lab[1].labSwitch.dataPort$o[2].channel typename "\"cnetfinal.Eth100M\""
par NUCESNetwork.islamabadCampus.lab[1].labSwitch.dataPort$o[2].channel disabled false
attr mutable ""
par NUCESNetwork.islamabadCampus.lab[1].labSwitch.dataPort$o[2].channel delay 1e-07s
attr mutable ""
attr unit s
par NUCESNetwork.islamabadCampus.lab[1].labSwitch.dataPort$o[2].channel datarate 1e+08bps
attr mutable ""
attr unit bps
par NUCESNetwork.islamabadCampus.lab[1].labSwitch.dataPort$o[2].channel ber 0
attr mutable ""
par NUCESNetwork.islamabadCampus.lab[1].labSwitch.dataPort$o[2].channel per 0
attr mutable ""
par NUCESNetwork.islamabadCampus.lab[1].system[3].gate$o.channel typename "\"cnetfinal.Eth100M\""
par NUCESNetwork.islamabadCampus.lab[1].system[3].gate$o.channel disabled false
attr mutable ""
par NUCESNetwork.islamabadCampus.lab[1].system[3].gate$o.channel delay 1e-07s
attr mutable ""
attr unit s
par NUCESNetwork.islamabadCampus.lab[1].system[3].gate$o.channel datarate 1e+08bps
attr mutable ""
attr unit bps
par NUCESNetwork.islamabadCampus.lab[1].system[3].gate$o.channel ber 0
attr mutable ""
par NUCESNetwork.islamabadCampus.lab[1].system[3].gate$o.channel per 0
attr mutable ""
par NUCESNetwork.islamabadCampus.lab[1].labSwitch.dataPort$o[3].channel typename "\"cnetfinal.Eth100M\""
par NUCESNetwork.islamabadCampus.lab[1].labSwitch.dataPort$o[3].channel disabled false
attr mutable ""
par NUCESNetwork.islamabadCampus.lab[1].labSwitch.dataPort$o[3].channel delay 1e-07s
attr mutable ""
attr unit s
par NUCESNetwork.islamabadCampus.lab[1].labSwitch.dataPort$o[3].channel datarate 1e+08bps
attr mutable ""
attr unit bps
par NUCESNetwork.islamabadCampus.lab[1].labSwitch.dataPort$o[3].channel ber 0
attr mutable ""
par NUCESNetwork.islamabadCampus.lab[1].labSwitch.dataPort$o[3].channel per 0
attr mutable ""
par NUCESNetwork.islamabadCampus.lab[1].system[4].gate$o.channel typename "\"cnetfinal.Eth100M\""
par NUCESNetwork.islamabadCampus.lab[1].system[4].gate$o.channel disabled false
attr mutable ""
par NUCESNetwork.islamabadCampus.lab[1].system[4].gate$o.channel delay 1e-07s
attr mutable ""
attr unit s
par NUCESNetwork.islamabadCampus.lab[1].system[4].gate$o.channel datarate 1e+08bps
attr mutable ""
attr unit bps
par NUCESNetwork.islamabadCampus.lab[1].system[4].gate$o.channel ber 0
attr mutable ""
par NUCESNetwork.islamabadCampus.lab[1].system[4].gate$o.channel per 0
attr mutable ""
par NUCESNetwork.islamabadCampus.lab[1].labSwitch.dataPort$o[4].channel typename "\"cnetfinal.Eth100M\""
par NUCESNetwork.islamabadCampus.lab[1].labSwitch.dataPort$o[4].channel disabled false
attr mutable ""
par NUCESNetwork.islamabadCampus.lab[1].labSwitch.dataPort$o[4].channel delay 1e-07s
attr mutable ""
attr unit s
par NUCESNetwork.islamabadCampus.lab[1].labSwitch.dataPort$o[4].channel datarate 1e+08bps
attr mutable ""
attr unit bps
par NUCESNetwork.islamabadCampus.lab[1].labSwitch.dataPort$o[4].channel ber 0
attr mutable ""
par NUCESNetwork.islamabadCampus.lab[1].labSwitch.dataPort$o[4].channel per 0
attr mutable ""
par NUCESNetwork.islamabadCampus.lab[1].labSwitch typename "\"cnetfinal.OpenFlowSwitch\""
par NUCESNetwork.islamabadCampus.lab[1].labSwitch switchId "\"\""
par NUCESNetwork.islamabadCampus.lab[1].labSwitch flowTableCapacity 100
par NUCESNetwork.islamabadCampus.lab[1].labSwitch isCore false
scalar NUCESNetwork.islamabadCampus.lab[1].labSwitch tableMisses 0
scalar NUCESNetwork.islamabadCampus.lab[1].labSwitch tableHits 0
scalar NUCESNetwork.islamabadCampus.lab[1].labSwitch avgProcessingTime nan
scalar NUCESNetwork.islamabadCampus.lab[1].labSwitch flowTableSize 0
scalar NUCESNetwork.islamabadCampus.lab[1].labSwitch finalHitRatio 0
statistic NUCESNetwork.islamabadCampus.lab[1].labSwitch packetProcessingTime:stats
field count 0
field mean nan
field stddev nan
field min nan
field max nan
field sum 0
field sqrsum 0
attr recordingmode stats
attr title "Packet processing time"
attr unit s
par NUCESNetwork.islamabadCampus.lab[1].system[0] typename "\"cnetfinal.Host\""
par NUCESNetwork.islamabadCampus.lab[1].system[0] macAddress "\"\""
par NUCESNetwork.islamabadCampus.lab[1].system[0] networkAddress "\"\""
par NUCESNetwork.islamabadCampus.lab[1].system[0] isFirewallModule false
scalar NUCESNetwork.islamabadCampus.lab[1].system[0] isFirewall 0
par NUCESNetwork.islamabadCampus.lab[1].system[1] typename "\"cnetfinal.Host\""
par NUCESNetwork.islamabadCampus.lab[1].system[1] macAddress "\"\""
par NUCESNetwork.islamabadCampus.lab[1].system[1] networkAddress "\"\""
par NUCESNetwork.islamabadCampus.lab[1].system[1] isFirewallModule false
scalar NUCESNetwork.islamabadCampus.lab[1].system[1] isFirewall 0
par NUCESNetwork.islamabadCampus.lab[1].system[2] typename "\"cnetfinal.Host\""
par NUCESNetwork.islamabadCampus.lab[1].system[2] macAddress "\"\""
par NUCESNetwork.islamabadCampus.lab[1].system[2] networkAddress "\"\""
par NUCESNetwork.islamabadCampus.lab[1].system[2] isFirewallModule false
scalar NUCESNetwork.islamabadCampus.lab[1].system[2] isFirewall 0
par NUCESNetwork.islamabadCampus.lab[1].system[3] typename "\"cnetfinal.Host\""
par NUCESNetwork.islamabadCampus.lab[1].system[3] macAddress "\"\""
par NUCESNetwork.islamabadCampus.lab[1].system[3] networkAddress "\"\""
par NUCESNetwork.islamabadCampus.lab[1].system[3] isFirewallModule false
scalar NUCESNetwork.islamabadCampus.lab[1].system[3] isFirewall 0
par NUCESNetwork.islamabadCampus.lab[1].system[4] typename "\"cnetfinal.Host\""
par NUCESNetwork.islamabadCampus.lab[1].system[4] macAddress "\"\""
par NUCESNetwork.islamabadCampus.lab[1].system[4] networkAddress "\"\""
par NUCESNetwork.islamabadCampus.lab[1].system[4] isFirewallModule false
scalar NUCESNetwork.islamabadCampus.lab[1].system[4] isFirewall 0
par NUCESNetwork.islamabadCampus.lab[1] typename "\"cnetfinal.LabNetwork\""
par NUCESNetwork.islamabadCampus.lab[1] numSystems 5
par NUCESNetwork.islamabadCampus.edgeServer typename "\"cnetfinal.Host\""
par NUCESNetwork.islamabadCampus.edgeServer macAddress "\"\""
par NUCESNetwork.islamabadCampus.edgeServer networkAddress "\"\""
par NUCESNetwork.islamabadCampus.edgeServer isFirewallModule false
scalar NUCESNetwork.islamabadCampus.edgeServer isFirewall 0
par NUCESNetwork.islamabadCampus typename "\"cnetfinal.Campus\""
par NUCESNetwork.islamabadCampus numLabs 2
par NUCESNetwork.islamabadCampus systemsPerLab 5
par NUCESNetwork.islamabadCampus campusName "\"Islamabad\""
par NUCESNetwork.karachiCampus.localController.gate$o[0].channel typename "\"cnetfinal.Eth1G\""
par NUCESNetwork.karachiCampus.localController.gate$o[0].channel disabled false
attr mutable ""
par NUCESNetwork.karachiCampus.localController.gate$o[0].channel delay 1e-07s
attr mutable ""
attr unit s
par NUCESNetwork.karachiCampus.localController.gate$o[0].channel datarate 1e+09bps
attr mutable ""
attr unit bps
par NUCESNetwork.karachiCampus.localController.gate$o[0].channel ber 0
attr mutable ""
par NUCESNetwork.karachiCampus.localController.gate$o[0].channel per 0
attr mutable ""
par NUCESNetwork.karachiCampus.coreSwitch1.controllerOut.channel typename "\"cnetfinal.Eth1G\""
par NUCESNetwork.karachiCampus.coreSwitch1.controllerOut.channel disabled false
attr mutable ""
par NUCESNetwork.karachiCampus.coreSwitch1.controllerOut.channel delay 1e-07s
attr mutable ""
attr unit s
par NUCESNetwork.karachiCampus.coreSwitch1.controllerOut.channel datarate 1e+09bps
attr mutable ""
attr unit bps
par NUCESNetwork.karachiCampus.coreSwitch1.controllerOut.channel ber 0
attr mutable ""
par NUCESNetwork.karachiCampus.coreSwitch1.controllerOut.channel per 0
attr mutable ""
par NUCESNetwork.karachiCampus.localController.gate$o[1].channel typename "\"cnetfinal.Eth1G\""
par NUCESNetwork.karachiCampus.localController.gate$o[1].channel disabled false
attr mutable ""
par NUCESNetwork.karachiCampus.localController.gate$o[1].channel delay 1e-07s
attr mutable ""
attr unit s
par NUCESNetwork.karachiCampus.localController.gate$o[1].channel datarate 1e+09bps
attr mutable ""
attr unit bps
par NUCESNetwork.karachiCampus.localController.gate$o[1].channel ber 0
attr mutable ""
par NUCESNetwork.karachiCampus.localController.gate$o[1].channel per 0
attr mutable ""
par NUCESNetwork.karachiCampus.coreSwitch2.controllerOut.channel typename "\"cnetfinal.Eth1G\""
par NUCESNetwork.karachiCampus.coreSwitch2.controllerOut.channel disabled false
attr mutable ""
par NUCESNetwork.karachiCampus.coreSwitch2.controllerOut.channel delay 1e-07s
attr mutable ""
attr unit s
par NUCESNetwork.karachiCampus.coreSwitch2.controllerOut.channel datarate 1e+09bps
attr mutable ""
attr unit bps
par NUCESNetwork.karachiCampus.coreSwitch2.controllerOut.channel ber 0
attr mutable ""
par NUCESNetwork.karachiCampus.coreSwitch2.controllerOut.channel per 0
attr mutable ""
par NUCESNetwork.karachiCampus.localController.gate$o[2].channel typename "\"cnetfinal.Eth1G\""
par NUCESNetwork.karachiCampus.localController.gate$o[2].channel disabled false
attr mutable ""
par NUCESNetwork.karachiCampus.localController.gate$o[2].channel delay 1e-07s
attr mutable ""
attr unit s
par NUCESNetwork.karachiCampus.localController.gate$o[2].channel datarate 1e+09bps
attr mutable ""
attr unit bps
par NUCESNetwork.karachiCampus.localController.gate$o[2].channel ber 0
attr mutable ""
par NUCESNetwork.karachiCampus.localController.gate$o[2].channel per 0
attr mutable ""
par NUCESNetwork.karachiCampus.coreSwitch3.controllerOut.channel typename "\"cnetfinal.Eth1G\""
par NUCESNetwork.karachiCampus.coreSwitch3.controllerOut.channel disabled false
attr mutable ""
par NUCESNetwork.karachiCampus.coreSwitch3.controllerOut.channel delay 1e-07s
attr mutable ""
attr unit s
par NUCESNetwork.karachiCampus.coreSwitch3.controllerOut.channel datarate 1e+09bps
attr mutable ""
attr unit bps
par NUCESNetwork.karachiCampus.coreSwitch3.controllerOut.channel ber 0
attr mutable ""
par NUCESNetwork.karachiCampus.coreSwitch3.controllerOut.channel per 0
attr mutable ""
par NUCESNetwork.karachiCampus.coreSwitch1.dataPort$o[0].channel typename "\"cnetfinal.Eth1G\""
par NUCESNetwork.karachiCampus.coreSwitch1.dataPort$o[0].channel disabled false
attr mutable ""
par NUCESNetwork.karachiCampus.coreSwitch1.dataPort$o[0].channel delay 1e-07s
attr mutable ""
attr unit s
par NUCESNetwork.karachiCampus.coreSwitch1.dataPort$o[0].channel datarate 1e+09bps
attr mutable ""
attr unit bps
par NUCESNetwork.karachiCampus.coreSwitch1.dataPort$o[0].channel ber 0
attr mutable ""
par NUCESNetwork.karachiCampus.coreSwitch1.dataPort$o[0].channel per 0
attr mutable ""
par NUCESNetwork.karachiCampus.coreSwitch2.dataPort$o[0].channel typename "\"cnetfinal.Eth1G\""
par NUCESNetwork.karachiCampus.coreSwitch2.dataPort$o[0].channel disabled false
attr mutable ""
par NUCESNetwork.karachiCampus.coreSwitch2.dataPort$o[0].channel delay 1e-07s
attr mutable ""
attr unit s
par NUCESNetwork.karachiCampus.coreSwitch2.dataPort$o[0].channel datarate 1e+09bps
attr mutable ""
attr unit bps
par NUCESNetwork.karachiCampus.coreSwitch2.dataPort$o[0].channel ber 0
attr mutable ""
par NUCESNetwork.karachiCampus.coreSwitch2.dataPort$o[0].channel per 0
attr mutable ""
par NUCESNetwork.karachiCampus.coreSwitch2.dataPort$o[1].channel typename "\"cnetfinal.Eth1G\""
par NUCESNetwork.karachiCampus.coreSwitch2.dataPort$o[1].channel disabled false
attr mutable ""
par NUCESNetwork.karachiCampus.coreSwitch2.dataPort$o[1].channel delay 1e-07s
attr mutable ""
attr unit s
par NUCESNetwork.karachiCampus.coreSwitch2.dataPort$o[1].channel datarate 1e+09bps
attr mutable ""
attr unit bps
par NUCESNetwork.karachiCampus.coreSwitch2.dataPort$o[1].channel ber 0
attr mutable ""
par NUCESNetwork.karachiCampus.coreSwitch2.dataPort$o[1].channel per 0
attr mutable ""
par NUCESNetwork.karachiCampus.coreSwitch3.dataPort$o[0].channel typename "\"cnetfinal.Eth1G\""
par NUCESNetwork.karachiCampus.coreSwitch3.dataPort$o[0].channel disabled false
attr mutable ""
par NUCESNetwork.karachiCampus.coreSwitch3.dataPort$o[0].channel delay 1e-07s
attr mutable ""
attr unit s
par NUCESNetwork.karachiCampus.coreSwitch3.dataPort$o[0].channel datarate 1e+09bps
attr mutable ""
attr unit bps
par NUCESNetwork.karachiCampus.coreSwitch3.dataPort$o[0].channel ber 0
attr mutable ""
par NUCESNetwork.karachiCampus.coreSwitch3.dataPort$o[0].channel per 0
attr mutable ""
par NUCESNetwork.karachiCampus.coreSwitch3.dataPort$o[1].channel typename "\"cnetfinal.Eth1G\""
par NUCESNetwork.karachiCampus.coreSwitch3.dataPort$o[1].channel disabled false
attr mutable ""
par NUCESNetwork.karachiCampus.coreSwitch3.dataPort$o[1].channel delay 1e-07s
attr mutable ""
attr unit s
par NUCESNetwork.karachiCampus.coreSwitch3.dataPort$o[1].channel datarate 1e+09bps
attr mutable ""
attr unit bps
par NUCESNetwork.karachiCampus.coreSwitch3.dataPort$o[1].channel ber 0
attr mutable ""
par NUCESNetwork.karachiCampus.coreSwitch3.dataPort$o[1].channel per 0
attr mutable ""
par NUCESNetwork.karachiCampus.coreSwitch1.dataPort$o[1].channel typename "\"cnetfinal.Eth1G\""
par NUCESNetwork.karachiCampus.coreSwitch1.dataPort$o[1].channel disabled false
attr mutable ""
par NUCESNetwork.karachiCampus.coreSwitch1.dataPort$o[1].channel delay 1e-07s
attr mutable ""
attr unit s
par NUCESNetwork.karachiCampus.coreSwitch1.dataPort$o[1].channel datarate 1e+09bps
attr mutable ""
attr unit bps
par NUCESNetwork.karachiCampus.coreSwitch1.dataPort$o[1].channel ber 0
attr mutable ""
par NUCESNetwork.karachiCampus.coreSwitch1.dataPort$o[1].channel per 0
attr mutable ""
par NUCESNetwork.karachiCampus.coreSwitch1.dataPort$o[2].channel typename "\"cnetfinal.Eth1G\""
par NUCESNetwork.karachiCampus.coreSwitch1.dataPort$o[2].channel disabled false
attr mutable ""
par NUCESNetwork.karachiCampus.coreSwitch1.dataPort$o[2].channel delay 1e-07s
attr mutable ""
attr unit s
par NUCESNetwork.karachiCampus.coreSwitch1.dataPort$o[2].channel datarate 1e+09bps
attr mutable ""
attr unit bps
par NUCESNetwork.karachiCampus.coreSwitch1.dataPort$o[2].channel ber 0
attr mutable ""
par NUCESNetwork.karachiCampus.coreSwitch1.dataPort$o[2].channel per 0
attr mutable ""
par NUCESNetwork.karachiCampus.lab[0].uplink$o.channel typename "\"cnetfinal.Eth1G\""
par NUCESNetwork.karachiCampus.lab[0].uplink$o.channel disabled false
attr mutable ""
par NUCESNetwork.karachiCampus.lab[0].uplink$o.channel delay 1e-07s
attr mutable ""
attr unit s
par NUCESNetwork.karachiCampus.lab[0].uplink$o.channel datarate 1e+09bps
attr mutable ""
attr unit bps
par NUCESNetwork.karachiCampus.lab[0].uplink$o.channel ber 0
attr mutable ""
par NUCESNetwork.karachiCampus.lab[0].uplink$o.channel per 0
attr mutable ""
par NUCESNetwork.karachiCampus.lab[0].controllerGate$o.channel typename "\"cnetfinal.Eth1G\""
par NUCESNetwork.karachiCampus.lab[0].controllerGate$o.channel disabled false
attr mutable ""
par NUCESNetwork.karachiCampus.lab[0].controllerGate$o.channel delay 1e-07s
attr mutable ""
attr unit s
par NUCESNetwork.karachiCampus.lab[0].controllerGate$o.channel datarate 1e+09bps
attr mutable ""
attr unit bps
par NUCESNetwork.karachiCampus.lab[0].controllerGate$o.channel ber 0
attr mutable ""
par NUCESNetwork.karachiCampus.lab[0].controllerGate$o.channel per 0
attr mutable ""
par NUCESNetwork.karachiCampus.coreSwitch2.dataPort$o[2].channel typename "\"cnetfinal.Eth1G\""
par NUCESNetwork.karachiCampus.coreSwitch2.dataPort$o[2].channel disabled false
attr mutable ""
par NUCESNetwork.karachiCampus.coreSwitch2.dataPort$o[2].channel delay 1e-07s
attr mutable ""
attr unit s
par NUCESNetwork.karachiCampus.coreSwitch2.dataPort$o[2].channel datarate 1e+09bps
attr mutable ""
attr unit bps
par NUCESNetwork.karachiCampus.coreSwitch2.dataPort$o[2].channel ber 0
attr mutable ""
par NUCESNetwork.karachiCampus.coreSwitch2.dataPort$o[2].channel per 0
attr mutable ""
par NUCESNetwork.karachiCampus.lab[1].uplink$o.channel typename "\"cnetfinal.Eth1G\""
par NUCESNetwork.karachiCampus.lab[1].uplink$o.channel disabled false
attr mutable ""
par NUCESNetwork.karachiCampus.lab[1].uplink$o.channel delay 1e-07s
attr mutable ""
attr unit s
par NUCESNetwork.karachiCampus.lab[1].uplink$o.channel datarate 1e+09bps
attr mutable ""
attr unit bps
par NUCESNetwork.karachiCampus.lab[1].uplink$o.channel ber 0
attr mutable ""
par NUCESNetwork.karachiCampus.lab[1].uplink$o.channel per 0
attr mutable ""
par NUCESNetwork.karachiCampus.lab[1].controllerGate$o.channel typename "\"cnetfinal.Eth1G\""
par NUCESNetwork.karachiCampus.lab[1].controllerGate$o.channel disabled false
attr mutable ""
par NUCESNetwork.karachiCampus.lab[1].controllerGate$o.channel delay 1e-07s
attr mutable ""
attr unit s
par NUCESNetwork.karachiCampus.lab[1].controllerGate$o.channel datarate 1e+09bps
attr mutable ""
attr unit bps
par NUCESNetwork.karachiCampus.lab[1].controllerGate$o.channel ber 0
attr mutable ""
par NUCESNetwork.karachiCampus.lab[1].controllerGate$o.channel per 0
attr mutable ""
par NUCESNetwork.karachiCampus.coreSwitch1.dataPort$o[3].channel typename "\"cnetfinal.Eth1G\""
par NUCESNetwork.karachiCampus.coreSwitch1.dataPort$o[3].channel disabled false
attr mutable ""
par NUCESNetwork.karachiCampus.coreSwitch1.dataPort$o[3].channel delay 1e-07s
attr mutable ""
attr unit s
par NUCESNetwork.karachiCampus.coreSwitch1.dataPort$o[3].channel datarate 1e+09bps
attr mutable ""
attr unit bps
par NUCESNetwork.karachiCampus.coreSwitch1.dataPort$o[3].channel ber 0
attr mutable ""
par NUCESNetwork.karachiCampus.coreSwitch1.dataPort$o[3].channel per 0
attr mutable ""
par NUCESNetwork.karachiCampus.edgeServer.gate$o.channel typename "\"cnetfinal.Eth1G\""
par NUCESNetwork.karachiCampus.edgeServer.gate$o.channel disabled false
attr mutable ""
par NUCESNetwork.karachiCampus.edgeServer.gate$o.channel delay 1e-07s
attr mutable ""
attr unit s
par NUCESNetwork.karachiCampus.edgeServer.gate$o.channel datarate 1e+09bps
attr mutable ""
attr unit bps
par NUCESNetwork.karachiCampus.edgeServer.gate$o.channel ber 0
attr mutable ""
par NUCESNetwork.karachiCampus.edgeServer.gate$o.channel per 0
attr mutable ""
par NUCESNetwork.karachiCampus.localController typename "\"cnetfinal.LocalController\""
par NUCESNetwork.karachiCampus.localController controllerType "\"local\""
par NUCESNetwork.karachiCampus.localController flowTableSize 5000
par NUCESNetwork.karachiCampus.localController processingDelay 0.001s
attr unit s
par NUCESNetwork.karachiCampus.localController campusName "\"\""
par NUCESNetwork.karachiCampus.localController updateInterval 5s
attr unit s
scalar NUCESNetwork.karachiCampus.localController avgFlowSetupTime nan
scalar NUCESNetwork.karachiCampus.localController maxFlowSetupTime nan
scalar NUCESNetwork.karachiCampus.localController totalFlowRequests 0
statistic NUCESNetwork.karachiCampus.localController flowSetupTime:stats
field count 0
field mean nan
field stddev nan
field min nan
field max nan
field sum 0
field sqrsum 0
attr recordingmode stats
attr title "Flow setup time"
attr unit s
par NUCESNetwork.karachiCampus.coreSwitch1 typename "\"cnetfinal.OpenFlowSwitch\""
par NUCESNetwork.karachiCampus.coreSwitch1 switchId "\"\""
par NUCESNetwork.karachiCampus.coreSwitch1 flowTableCapacity 1000
par NUCESNetwork.karachiCampus.coreSwitch1 isCore true
scalar NUCESNetwork.karachiCampus.coreSwitch1 tableMisses 0
scalar NUCESNetwork.karachiCampus.coreSwitch1 tableHits 0
scalar NUCESNetwork.karachiCampus.coreSwitch1 avgProcessingTime nan
scalar NUCESNetwork.karachiCampus.coreSwitch1 flowTableSize 0
scalar NUCESNetwork.karachiCampus.coreSwitch1 finalHitRatio 0
statistic NUCESNetwork.karachiCampus.coreSwitch1 packetProcessingTime:stats
field count 0
field mean nan
field stddev nan
field min nan
field max nan
field sum 0
field sqrsum 0
attr recordingmode stats
attr title "Packet processing time"
attr unit s
par NUCESNetwork.karachiCampus.coreSwitch2 typename "\"cnetfinal.OpenFlowSwitch\""
par NUCESNetwork.karachiCampus.coreSwitch2 switchId "\"\""
par NUCESNetwork.karachiCampus.coreSwitch2 flowTableCapacity 1000
par NUCESNetwork.karachiCampus.coreSwitch2 isCore true
[...]
scalar NUCESNetwork.multanCampus.coreSwitch1 tableMisses 0
scalar NUCESNetwork.multanCampus.coreSwitch1 tableHits 0
scalar NUCESNetwork.multanCampus.coreSwitch1 avgProcessingTime nan
scalar NUCESNetwork.multanCampus.coreSwitch1 flowTableSize 0
scalar NUCESNetwork.multanCampus.coreSwitch1 finalHitRatio 0
statistic NUCESNetwork.multanCampus.coreSwitch1 packetProcessingTime:stats
field count 0
field mean nan
field stddev nan
field min nan
field max nan
field sum 0
field sqrsum 0
attr recordingmode stats
attr title "Packet processing time"
attr unit s
par NUCESNetwork.multanCampus.coreSwitch2 typename "\"cnetfinal.OpenFlowSwitch\""
par NUCESNetwork.multanCampus.coreSwitch2 switchId "\"\""
par NUCESNetwork.multanCampus.coreSwitch2 flowTableCapacity 1000
par NUCESNetwork.multanCampus.coreSwitch2 isCore true
scalar NUCESNetwork.multanCampus.coreSwitch2 tableMisses 0
scalar NUCESNetwork.multanCampus.coreSwitch2 tableHits 0
scalar NUCESNetwork.multanCampus.coreSwitch2 avgProcessingTime nan
scalar NUCESNetwork.multanCampus.coreSwitch2 flowTableSize 0
scalar NUCESNetwork.multanCampus.coreSwitch2 finalHitRatio 0
statistic NUCESNetwork.multanCampus.coreSwitch2 packetProcessingTime:stats
field count 0
field mean nan
field stddev nan
field min nan
field max nan
field sum 0
field sqrsum 0
attr recordingmode stats
attr title "Packet processing time"
attr unit s
par NUCESNetwork.multanCampus.coreSwitch3 typename "\"cnetfinal.OpenFlowSwitch\""
par NUCESNetwork.multanCampus.coreSwitch3 switchId "\"\""
par NUCESNetwork.multanCampus.coreSwitch3 flowTableCapacity 1000
par NUCESNetwork.multanCampus.coreSwitch3 isCore true
scalar NUCESNetwork.multanCampus.coreSwitch3 tableMisses 0
scalar NUCESNetwork.multanCampus.coreSwitch3 tableHits 0
scalar NUCESNetwork.multanCampus.coreSwitch3 avgProcessingTime nan
scalar NUCESNetwork.multanCampus.coreSwitch3 flowTableSize 0
scalar NUCESNetwork.multanCampus.coreSwitch3 finalHitRatio 0
statistic NUCESNetwork.multanCampus.coreSwitch3 packetProcessingTime:stats
field count 0
field mean nan
field stddev nan
field min nan
field max nan
field sum 0
field sqrsum 0
attr recordingmode stats
attr title "Packet processing time"
attr unit s
par NUCESNetwork.multanCampus.lab[0].system[0].gate$o.channel typename "\"cnetfinal.Eth100M\""
par NUCESNetwork.multanCampus.lab[0].system[0].gate$o.channel disabled false
attr mutable ""
par NUCESNetwork.multanCampus.lab[0].system[0].gate$o.channel delay 1e-07s
attr mutable ""
attr unit s
par NUCESNetwork.multanCampus.lab[0].system[0].gate$o.channel datarate 1e+08bps
attr mutable ""
attr unit bps
par NUCESNetwork.multanCampus.lab[0].system[0].gate$o.channel ber 0
attr mutable ""
par NUCESNetwork.multanCampus.lab[0].system[0].gate$o.channel per 0
attr mutable ""
par NUCESNetwork.multanCampus.lab[0].labSwitch.dataPort$o[0].channel typename "\"cnetfinal.Eth100M\""
par NUCESNetwork.multanCampus.lab[0].labSwitch.dataPort$o[0].channel disabled false
attr mutable ""
par NUCESNetwork.multanCampus.lab[0].labSwitch.dataPort$o[0].channel delay 1e-07s
attr mutable ""
attr unit s
par NUCESNetwork.multanCampus.lab[0].labSwitch.dataPort$o[0].channel datarate 1e+08bps
attr mutable ""
attr unit bps
par NUCESNetwork.multanCampus.lab[0].labSwitch.dataPort$o[0].channel ber 0
attr mutable ""
par NUCESNetwork.multanCampus.lab[0].labSwitch.dataPort$o[0].channel per 0
attr mutable ""
par NUCESNetwork.multanCampus.lab[0].system[1].gate$o.channel typename "\"cnetfinal.Eth100M\""
par NUCESNetwork.multanCampus.lab[0].system[1].gate$o.channel disabled false
attr mutable ""
par NUCESNetwork.multanCampus.lab[0].system[1].gate$o.channel delay 1e-07s
attr mutable ""
attr unit s
par NUCESNetwork.multanCampus.lab[0].system[1].gate$o.channel datarate 1e+08bps
attr mutable ""
attr unit bps
par NUCESNetwork.multanCampus.lab[0].system[1].gate$o.channel ber 0
attr mutable ""
par NUCESNetwork.multanCampus.lab[0].system[1].gate$o.channel per 0
attr mutable ""
par NUCESNetwork.multanCampus.lab[0].labSwitch.dataPort$o[1].channel typename "\"cnetfinal.Eth100M\""
par NUCESNetwork.multanCampus.lab[0].labSwitch.dataPort$o[1].channel disabled false
attr mutable ""
par NUCESNetwork.multanCampus.lab[0].labSwitch.dataPort$o[1].channel delay 1e-07s
attr mutable ""
attr unit s
par NUCESNetwork.multanCampus.lab[0].labSwitch.dataPort$o[1].channel datarate 1e+08bps
attr mutable ""
attr unit bps
par NUCESNetwork.multanCampus.lab[0].labSwitch.dataPort$o[1].channel ber 0
attr mutable ""
par NUCESNetwork.multanCampus.lab[0].labSwitch.dataPort$o[1].channel per 0
attr mutable ""
par NUCESNetwork.multanCampus.lab[0].system[2].gate$o.channel typename "\"cnetfinal.Eth100M\""
par NUCESNetwork.multanCampus.lab[0].system[2].gate$o.channel disabled false
attr mutable ""
par NUCESNetwork.multanCampus.lab[0].system[2].gate$o.channel delay 1e-07s
attr mutable ""
attr unit s
par NUCESNetwork.multanCampus.lab[0].system[2].gate$o.channel datarate 1e+08bps
attr mutable ""
attr unit bps
par NUCESNetwork.multanCampus.lab[0].system[2].gate$o.channel ber 0
attr mutable ""
par NUCESNetwork.multanCampus.lab[0].system[2].gate$o.channel per 0
attr mutable ""
par NUCESNetwork.multanCampus.lab[0].labSwitch.dataPort$o[2].channel typename "\"cnetfinal.Eth100M\""
par NUCESNetwork.multanCampus.lab[0].labSwitch.dataPort$o[2].channel disabled false
attr mutable ""
par NUCESNetwork.multanCampus.lab[0].labSwitch.dataPort$o[2].channel delay 1e-07s
attr mutable ""
attr unit s
par NUCESNetwork.multanCampus.lab[0].labSwitch.dataPort$o[2].channel datarate 1e+08bps
attr mutable ""
attr unit bps
par NUCESNetwork.multanCampus.lab[0].labSwitch.dataPort$o[2].channel ber 0
attr mutable ""
par NUCESNetwork.multanCampus.lab[0].labSwitch.dataPort$o[2].channel per 0
attr mutable ""
par NUCESNetwork.multanCampus.lab[0].system[3].gate$o.channel typename "\"cnetfinal.Eth100M\""
par NUCESNetwork.multanCampus.lab[0].system[3].gate$o.channel disabled false
attr mutable ""
par NUCESNetwork.multanCampus.lab[0].system[3].gate$o.channel delay 1e-07s
attr mutable ""
attr unit s
par NUCESNetwork.multanCampus.lab[0].system[3].gate$o.channel datarate 1e+08bps
attr mutable ""
attr unit bps
par NUCESNetwork.multanCampus.lab[0].system[3].gate$o.channel ber 0
attr mutable ""
par NUCESNetwork.multanCampus.lab[0].system[3].gate$o.channel per 0
attr mutable ""
par NUCESNetwork.multanCampus.lab[0].labSwitch.dataPort$o[3].channel typename "\"cnetfinal.Eth100M\""
par NUCESNetwork.multanCampus.lab[0].labSwitch.dataPort$o[3].channel disabled false
attr mutable ""
par NUCESNetwork.multanCampus.lab[0].labSwitch.dataPort$o[3].channel delay 1e-07s
attr mutable ""
attr unit s
par NUCESNetwork.multanCampus.lab[0].labSwitch.dataPort$o[3].channel datarate 1e+08bps
attr mutable ""
attr unit bps
par NUCESNetwork.multanCampus.lab[0].labSwitch.dataPort$o[3].channel ber 0
attr mutable ""
par NUCESNetwork.multanCampus.lab[0].labSwitch.dataPort$o[3].channel per 0
attr mutable ""
par NUCESNetwork.multanCampus.lab[0].system[4].gate$o.channel typename "\"cnetfinal.Eth100M\""
par NUCESNetwork.multanCampus.lab[0].system[4].gate$o.channel disabled false
attr mutable ""
par NUCESNetwork.multanCampus.lab[0].system[4].gate$o.channel delay 1e-07s
attr mutable ""
attr unit s
par NUCESNetwork.multanCampus.lab[0].system[4].gate$o.channel datarate 1e+08bps
attr mutable ""
attr unit bps
par NUCESNetwork.multanCampus.lab[0].system[4].gate$o.channel ber 0
attr mutable ""
par NUCESNetwork.multanCampus.lab[0].system[4].gate$o.channel per 0
attr mutable ""
par NUCESNetwork.multanCampus.lab[0].labSwitch.dataPort$o[4].channel typename "\"cnetfinal.Eth100M\""
par NUCESNetwork.multanCampus.lab[0].labSwitch.dataPort$o[4].channel disabled false
attr mutable ""
par NUCESNetwork.multanCampus.lab[0].labSwitch.dataPort$o[4].channel delay 1e-07s
attr mutable ""
attr unit s
par NUCESNetwork.multanCampus.lab[0].labSwitch.dataPort$o[4].channel datarate 1e+08bps
attr mutable ""
attr unit bps
par NUCESNetwork.multanCampus.lab[0].labSwitch.dataPort$o[4].channel ber 0
attr mutable ""
par NUCESNetwork.multanCampus.lab[0].labSwitch.dataPort$o[4].channel per 0
attr mutable ""
par NUCESNetwork.multanCampus.lab[0].labSwitch typename "\"cnetfinal.OpenFlowSwitch\""
par NUCESNetwork.multanCampus.lab[0].labSwitch switchId "\"\""
par NUCESNetwork.multanCampus.lab[0].labSwitch flowTableCapacity 100
par NUCESNetwork.multanCampus.lab[0].labSwitch isCore false
scalar NUCESNetwork.multanCampus.lab[0].labSwitch tableMisses 0
scalar NUCESNetwork.multanCampus.lab[0].labSwitch tableHits 0
scalar NUCESNetwork.multanCampus.lab[0].labSwitch avgProcessingTime nan
scalar NUCESNetwork.multanCampus.lab[0].labSwitch flowTableSize 0
scalar NUCESNetwork.multanCampus.lab[0].labSwitch finalHitRatio 0
statistic NUCESNetwork.multanCampus.lab[0].labSwitch packetProcessingTime:stats
field count 0
field mean nan
field stddev nan
field min nan
field max nan
field sum 0
field sqrsum 0
attr recordingmode stats
attr title "Packet processing time"
attr unit s
par NUCESNetwork.multanCampus.lab[0].system[0] typename "\"cnetfinal.Host\""
par NUCESNetwork.multanCampus.lab[0].system[0] macAddress "\"\""
par NUCESNetwork.multanCampus.lab[0].system[0] networkAddress "\"\""
par NUCESNetwork.multanCampus.lab[0].system[0] isFirewallModule false
scalar NUCESNetwork.multanCampus.lab[0].system[0] isFirewall 0
par NUCESNetwork.multanCampus.lab[0].system[1] typename "\"cnetfinal.Host\""
par NUCESNetwork.multanCampus.lab[0].system[1] macAddress "\"\""
par NUCESNetwork.multanCampus.lab[0].system[1] networkAddress "\"\""
par NUCESNetwork.multanCampus.lab[0].system[1] isFirewallModule false
scalar NUCESNetwork.multanCampus.lab[0].system[1] isFirewall 0
par NUCESNetwork.multanCampus.lab[0].system[2] typename "\"cnetfinal.Host\""
par NUCESNetwork.multanCampus.lab[0].system[2] macAddress "\"\""
par NUCESNetwork.multanCampus.lab[0].system[2] networkAddress "\"\""
par NUCESNetwork.multanCampus.lab[0].system[2] isFirewallModule false
scalar NUCESNetwork.multanCampus.lab[0].system[2] isFirewall 0
par NUCESNetwork.multanCampus.lab[0].system[3] typename "\"cnetfinal.Host\""
par NUCESNetwork.multanCampus.lab[0].system[3] macAddress "\"\""
par NUCESNetwork.multanCampus.lab[0].system[3] networkAddress "\"\""
par NUCESNetwork.multanCampus.lab[0].system[3] isFirewallModule false
scalar NUCESNetwork.multanCampus.lab[0].system[3] isFirewall 0
par NUCESNetwork.multanCampus.lab[0].system[4] typename "\"cnetfinal.Host\""
par NUCESNetwork.multanCampus.lab[0].system[4] macAddress "\"\""
par NUCESNetwork.multanCampus.lab[0].system[4] networkAddress "\"\""
par NUCESNetwork.multanCampus.lab[0].system[4] isFirewallModule false
scalar NUCESNetwork.multanCampus.lab[0].system[4] isFirewall 0
par NUCESNetwork.multanCampus.lab[0] typename "\"cnetfinal.LabNetwork\""
par NUCESNetwork.multanCampus.lab[0] numSystems 5
par NUCESNetwork.multanCampus.lab[1].system[0].gate$o.channel typename "\"cnetfinal.Eth100M\""
par NUCESNetwork.multanCampus.lab[1].system[0].gate$o.channel disabled false
attr mutable ""
par NUCESNetwork.multanCampus.lab[1].system[0].gate$o.channel delay 1e-07s
attr mutable ""
attr unit s
par NUCESNetwork.multanCampus.lab[1].system[0].gate$o.channel datarate 1e+08bps
attr mutable ""
attr unit bps
par NUCESNetwork.multanCampus.lab[1].system[0].gate$o.channel ber 0
attr mutable ""
par NUCESNetwork.multanCampus.lab[1].system[0].gate$o.channel per 0
attr mutable ""
par NUCESNetwork.multanCampus.lab[1].labSwitch.dataPort$o[0].channel typename "\"cnetfinal.Eth100M\""
par NUCESNetwork.multanCampus.lab[1].labSwitch.dataPort$o[0].channel disabled false
attr mutable ""
par NUCESNetwork.multanCampus.lab[1].labSwitch.dataPort$o[0].channel delay 1e-07s
attr mutable ""
attr unit s
par NUCESNetwork.multanCampus.lab[1].labSwitch.dataPort$o[0].channel datarate 1e+08bps
attr mutable ""
attr unit bps
par NUCESNetwork.multanCampus.lab[1].labSwitch.dataPort$o[0].channel ber 0
attr mutable ""
par NUCESNetwork.multanCampus.lab[1].labSwitch.dataPort$o[0].channel per 0
attr mutable ""
par NUCESNetwork.multanCampus.lab[1].system[1].gate$o.channel typename "\"cnetfinal.Eth100M\""
par NUCESNetwork.multanCampus.lab[1].system[1].gate$o.channel disabled false
attr mutable ""
par NUCESNetwork.multanCampus.lab[1].system[1].gate$o.channel delay 1e-07s
attr mutable ""
attr unit s
par NUCESNetwork.multanCampus.lab[1].system[1].gate$o.channel datarate 1e+08bps
attr mutable ""
attr unit bps
par NUCESNetwork.multanCampus.lab[1].system[1].gate$o.channel ber 0
attr mutable ""
par NUCESNetwork.multanCampus.lab[1].system[1].gate$o.channel per 0
attr mutable ""
par NUCESNetwork.multanCampus.lab[1].labSwitch.dataPort$o[1].channel typename "\"cnetfinal.Eth100M\""
par NUCESNetwork.multanCampus.lab[1].labSwitch.dataPort$o[1].channel disabled false
attr mutable ""
par NUCESNetwork.multanCampus.lab[1].labSwitch.dataPort$o[1].channel delay 1e-07s
attr mutable ""
attr unit s
par NUCESNetwork.multanCampus.lab[1].labSwitch.dataPort$o[1].channel datarate 1e+08bps
attr mutable ""
attr unit bps
par NUCESNetwork.multanCampus.lab[1].labSwitch.dataPort$o[1].channel ber 0
attr mutable ""
par NUCESNetwork.multanCampus.lab[1].labSwitch.dataPort$o[1].channel per 0
attr mutable ""
par NUCESNetwork.multanCampus.lab[1].system[2].gate$o.channel typename "\"cnetfinal.Eth100M\""
par NUCESNetwork.multanCampus.lab[1].system[2].gate$o.channel disabled false
attr mutable ""
par NUCESNetwork.multanCampus.lab[1].system[2].gate$o.channel delay 1e-07s
attr mutable ""
attr unit s
par NUCESNetwork.multanCampus.lab[1].system[2].gate$o.channel datarate 1e+08bps
attr mutable ""
attr unit bps
par NUCESNetwork.multanCampus.lab[1].system[2].gate$o.channel ber 0
attr mutable ""
par NUCESNetwork.multanCampus.lab[1].system[2].gate$o.channel per 0
attr mutable ""
par NUCESNetwork.multanCampus.lab[1].labSwitch.dataPort$o[2].channel typename "\"cnetfinal.Eth100M\""
par NUCESNetwork.multanCampus.lab[1].labSwitch.dataPort$o[2].channel disabled false
attr mutable ""
par NUCESNetwork.multanCampus.lab[1].labSwitch.dataPort$o[2].channel delay 1e-07s
attr mutable ""
attr unit s
par NUCESNetwork.multanCampus.lab[1].labSwitch.dataPort$o[2].channel datarate 1e+08bps
attr mutable ""
attr unit bps
par NUCESNetwork.multanCampus.lab[1].labSwitch.dataPort$o[2].channel ber 0
attr mutable ""
par NUCESNetwork.multanCampus.lab[1].labSwitch.dataPort$o[2].channel per 0
attr mutable ""
par NUCESNetwork.multanCampus.lab[1].system[3].gate$o.channel typename "\"cnetfinal.Eth100M\""
par NUCESNetwork.multanCampus.lab[1].system[3].gate$o.channel disabled false
attr mutable ""
par NUCESNetwork.multanCampus.lab[1].system[3].gate$o.channel delay 1e-07s
attr mutable ""
attr unit s
par NUCESNetwork.multanCampus.lab[1].system[3].gate$o.channel datarate 1e+08bps
attr mutable ""
attr unit bps
par NUCESNetwork.multanCampus.lab[1].system[3].gate$o.channel ber 0
attr mutable ""
par NUCESNetwork.multanCampus.lab[1].system[3].gate$o.channel per 0
attr mutable ""
par NUCESNetwork.multanCampus.lab[1].labSwitch.dataPort$o[3].channel typename "\"cnetfinal.Eth100M\""
par NUCESNetwork.multanCampus.lab[1].labSwitch.dataPort$o[3].channel disabled false
attr mutable ""
par NUCESNetwork.multanCampus.lab[1].labSwitch.dataPort$o[3].channel delay 1e-07s
attr mutable ""
attr unit s
par NUCESNetwork.multanCampus.lab[1].labSwitch.dataPort$o[3].channel datarate 1e+08bps
attr mutable ""
attr unit bps
par NUCESNetwork.multanCampus.lab[1].labSwitch.dataPort$o[3].channel ber 0
attr mutable ""
par NUCESNetwork.multanCampus.lab[1].labSwitch.dataPort$o[3].channel per 0
attr mutable ""
par NUCESNetwork.multanCampus.lab[1].system[4].gate$o.channel typename "\"cnetfinal.Eth100M\""
par NUCESNetwork.multanCampus.lab[1].system[4].gate$o.channel disabled false
attr mutable ""
par NUCESNetwork.multanCampus.lab[1].system[4].gate$o.channel delay 1e-07s
attr mutable ""
attr unit s
par NUCESNetwork.multanCampus.lab[1].system[4].gate$o.channel datarate 1e+08bps
attr mutable ""
attr unit bps
par NUCESNetwork.multanCampus.lab[1].system[4].gate$o.channel ber 0
attr mutable ""
par NUCESNetwork.multanCampus.lab[1].system[4].gate$o.channel per 0
attr mutable ""
par NUCESNetwork.multanCampus.lab[1].labSwitch.dataPort$o[4].channel typename "\"cnetfinal.Eth100M\""
par NUCESNetwork.multanCampus.lab[1].labSwitch.dataPort$o[4].channel disabled false
attr mutable ""
par NUCESNetwork.multanCampus.lab[1].labSwitch.dataPort$o[4].channel delay 1e-07s
attr mutable ""
attr unit s
par NUCESNetwork.multanCampus.lab[1].labSwitch.dataPort$o[4].channel datarate 1e+08bps
attr mutable ""
attr unit bps
par NUCESNetwork.multanCampus.lab[1].labSwitch.dataPort$o[4].channel ber 0
attr mutable ""
par NUCESNetwork.multanCampus.lab[1].labSwitch.dataPort$o[4].channel per 0
attr mutable ""
par NUCESNetwork.multanCampus.lab[1].labSwitch typename "\"cnetfinal.OpenFlowSwitch\""
par NUCESNetwork.multanCampus.lab[1].labSwitch switchId "\"\""
par NUCESNetwork.multanCampus.lab[1].labSwitch flowTableCapacity 100
par NUCESNetwork.multanCampus.lab[1].labSwitch isCore false
scalar NUCESNetwork.multanCampus.lab[1].labSwitch tableMisses 0
scalar NUCESNetwork.multanCampus.lab[1].labSwitch tableHits 0
scalar NUCESNetwork.multanCampus.lab[1].labSwitch avgProcessingTime nan
scalar NUCESNetwork.multanCampus.lab[1].labSwitch flowTableSize 0
scalar NUCESNetwork.multanCampus.lab[1].labSwitch finalHitRatio 0
statistic NUCESNetwork.multanCampus.lab[1].labSwitch packetProcessingTime:stats
field count 0
field mean nan
field stddev nan
field min nan
field max nan
field sum 0
field sqrsum 0
attr recordingmode stats
attr title "Packet processing time"
attr unit s
par NUCESNetwork.multanCampus.lab[1].system[0] typename "\"cnetfinal.Host\""
par NUCESNetwork.multanCampus.lab[1].system[0] macAddress "\"\""
par NUCESNetwork.multanCampus.lab[1].system[0] networkAddress "\"\""
par NUCESNetwork.multanCampus.lab[1].system[0] isFirewallModule false
scalar NUCESNetwork.multanCampus.lab[1].system[0] isFirewall 0
par NUCESNetwork.multanCampus.lab[1].system[1] typename "\"cnetfinal.Host\""
par NUCESNetwork.multanCampus.lab[1].system[1] macAddress "\"\""
par NUCESNetwork.multanCampus.lab[1].system[1] networkAddress "\"\""
par NUCESNetwork.multanCampus.lab[1].system[1] isFirewallModule false
scalar NUCESNetwork.multanCampus.lab[1].system[1] isFirewall 0
par NUCESNetwork.multanCampus.lab[1].system[2] typename "\"cnetfinal.Host\""
par NUCESNetwork.multanCampus.lab[1].system[2] macAddress "\"\""
par NUCESNetwork.multanCampus.lab[1].system[2] networkAddress "\"\""
par NUCESNetwork.multanCampus.lab[1].system[2] isFirewallModule false
scalar NUCESNetwork.multanCampus.lab[1].system[2] isFirewall 0
par NUCESNetwork.multanCampus.lab[1].system[3] typename "\"cnetfinal.Host\""
par NUCESNetwork.multanCampus.lab[1].system[3] macAddress "\"\""
par NUCESNetwork.multanCampus.lab[1].system[3] networkAddress "\"\""
par NUCESNetwork.multanCampus.lab[1].system[3] isFirewallModule false
scalar NUCESNetwork.multanCampus.lab[1].system[3] isFirewall 0
par NUCESNetwork.multanCampus.lab[1].system[4] typename "\"cnetfinal.Host\""
par NUCESNetwork.multanCampus.lab[1].system[4] macAddress "\"\""
par NUCESNetwork.multanCampus.lab[1].system[4] networkAddress "\"\""
par NUCESNetwork.multanCampus.lab[1].system[4] isFirewallModule false
scalar NUCESNetwork.multanCampus.lab[1].system[4] isFirewall 0
par NUCESNetwork.multanCampus.lab[1] typename "\"cnetfinal.LabNetwork\""
par NUCESNetwork.multanCampus.lab[1] numSystems 5
par NUCESNetwork.multanCampus.edgeServer typename "\"cnetfinal.Host\""
par NUCESNetwork.multanCampus.edgeServer macAddress "\"\""
par NUCESNetwork.multanCampus.edgeServer networkAddress "\"\""
par NUCESNetwork.multanCampus.edgeServer isFirewallModule false
scalar NUCESNetwork.multanCampus.edgeServer isFirewall 0
par NUCESNetwork.multanCampus typename "\"cnetfinal.Campus\""
par NUCESNetwork.multanCampus numLabs 2
par NUCESNetwork.multanCampus systemsPerLab 5
par NUCESNetwork.multanCampus campusName "\"Multan\""
par NUCESNetwork typename "\"cnetfinal.NUCESNetwork\""

